27

C      0.131233   -0.275331   -2.730480
O      0.936341   -0.313453   -1.572241
C      0.164224   -0.702843   -0.448521
C     -0.486139    0.514266    0.215161
C      0.085734    0.528373    1.639982
C     -0.816844   -0.284406    2.597182
C     -0.701323   -1.779614    2.349744
O     -1.475847   -2.536941    2.913134
C      0.387524   -2.360123    1.463161
C      1.101169   -1.258470    0.646563
N      1.382563   -0.153208    1.571809
C      2.456389    0.731824    1.086723
H      0.733565    0.134931   -3.566660
H     -0.752528    0.387101   -2.594392
H     -0.193096   -1.299448   -3.018377
H     -0.610620   -1.462611   -0.716561
H     -1.595367    0.437342    0.199051
H     -0.198966    1.453225   -0.307403
H      0.179941    1.570771    2.020959
H     -1.876146    0.036368    2.493570
H     -0.506880   -0.080987    3.644647
H      1.131549   -2.868717    2.113187
H     -0.042452   -3.128084    0.784022
H      2.033198   -1.683594    0.208436
H      2.212795    1.194313    0.106981
H      3.402456    0.158138    0.988725
H      2.634098    1.541187    1.826215
