42

C      1.041031    0.387364    2.783869
C     -0.057626   -0.552015    3.308317
C     -1.354950    0.250193    3.145298
C     -0.889459    1.606590    2.602923
C     -1.943215    2.411904    1.773319
C     -1.596915    3.910829    1.785464
C     -2.083013    1.915800    0.320505
C     -0.727335    1.654157   -0.249126
O     -0.371192    2.158931   -1.303954
C      0.158610    0.754847    0.558604
C      1.503411    0.444515   -0.106816
C      2.237872   -0.670957    0.675901
C      2.309899   -0.272428    2.174964
S      3.982632   -0.833416    0.101612
C      3.702179   -1.384463   -1.615499
C      3.007500   -2.740374   -1.662577
C      1.550355   -2.649358   -1.224269
S      1.397735   -2.313756    0.564109
N      0.385168    1.359347    1.895042
H      1.410311    0.951676    3.673608
H      0.121145   -0.807332    4.375713
H     -0.117244   -1.491019    2.723634
H     -2.032590   -0.256513    2.424477
H     -1.881303    0.368908    4.117534
H     -0.658944    2.225172    3.503424
H     -2.933776    2.306033    2.268931
H     -0.600661    4.087524    1.326204
H     -2.360184    4.489654    1.222823
H     -1.583807    4.295744    2.827406
H     -2.660196    0.966230    0.310277
H     -2.640284    2.648776   -0.303623
H     -0.401503   -0.202849    0.640673
H      1.329636    0.155252   -1.158279
H      2.126283    1.366513   -0.116362
H      3.128512    0.473429    2.291396
H      2.605599   -1.148202    2.793354
H      4.699123   -1.488345   -2.093144
H      3.146599   -0.624032   -2.200119
H      3.036216   -3.113599   -2.709248
H      3.552998   -3.472657   -1.028160
H      0.991610   -1.906906   -1.827705
H      1.070976   -3.632917   -1.412934
