47

C     -2.351353    0.035064   -0.533981
C     -3.215991    1.265109   -0.208080
C     -4.206429    1.378394   -1.365194
C     -3.539995    0.648394   -2.476877
O     -3.986679    0.626761   -3.614117
C     -2.254267   -0.010143   -2.079954
C     -2.194687   -1.462038   -2.597036
C     -1.077014    0.837855   -2.637255
C      0.242289    0.620731   -1.886698
C      0.064507    0.939545   -0.386095
C      1.374488    0.892306    0.405976
C      1.418688    0.352626    1.719309
C      2.626070    0.353769    2.436048
C      3.783428    0.942985    1.902021
O      5.008296    0.962822    2.587173
S      5.347559    0.129880    4.044478
N      5.237354   -1.578643    3.792563
O      6.746166    0.467741    4.476596
O      4.388965    0.555728    5.121486
C      3.714358    1.553743    0.645463
Br     5.250574    2.423264   -0.096675
C      2.523509    1.543794   -0.084106
C      0.210880   -0.284298    2.368336
C     -1.101396    0.128550    1.702571
C     -0.979847   -0.046299    0.185183
H     -2.943145   -0.847042   -0.192255
H     -3.748010    1.142258    0.760247
H     -2.596434    2.185789   -0.165933
H     -5.167251    0.879854   -1.113754
H     -4.381537    2.441570   -1.636879
H     -1.286028   -1.974715   -2.218507
H     -3.085530   -2.036617   -2.262575
H     -2.170557   -1.481104   -3.707675
H     -0.922599    0.614094   -3.715668
H     -1.324006    1.922464   -2.573466
H      0.988507    1.291021   -2.356325
H      0.598778   -0.423533   -2.024261
H     -0.318285    1.978588   -0.289369
H      2.640930   -0.091000    3.419301
H      4.238651   -1.807554    3.594613
H      5.473035   -2.035462    4.702027
H      2.506833    2.067922   -1.027795
H      0.163903   -0.000429    3.442518
H      0.320655   -1.389219    2.312480
H     -1.920779   -0.510032    2.098996
H     -1.331340    1.187505    1.953868
H     -0.602488   -1.080683    0.007164
