51

C      0.531663    2.261832   -4.060361
O     -0.329356    2.188888   -2.932417
C     -0.377531    0.870494   -2.402449
C     -1.800882    0.273846   -2.641606
C     -1.975048   -0.217618   -4.084041
O     -2.236805   -0.754419   -1.753974
C     -1.233424   -1.228823   -0.877371
S     -1.964717   -2.531812    0.179703
C     -2.212553   -3.703235   -1.166806
C     -3.392544   -3.661538   -1.928730
C     -3.621069   -4.625083   -2.913564
C     -2.674060   -5.633752   -3.140014
C     -1.487869   -5.670785   -2.393370
C     -1.253545   -4.705175   -1.408887
C     -0.719347   -0.070564   -0.008109
O      0.250911   -0.553868    0.907962
C     -0.213622   -0.525723    2.247234
C      0.299799    0.706321    2.953033
C     -0.583295    1.574585    3.619537
C     -0.085124    2.702008    4.299486
C      1.300553    2.978053    4.300364
O      1.848214    4.086875    4.966438
C      1.146627    4.909297    5.891789
C      2.173924    2.110171    3.620084
C      1.679630    0.988291    2.943651
C     -0.077218    0.927755   -0.924718
O      0.795291    1.695338   -0.492844
H      1.586973    2.401670   -3.730227
H      0.453778    1.379754   -4.735811
H      0.239269    3.146305   -4.656250
H      0.379868    0.176967   -2.835628
H     -2.519577    1.112883   -2.507797
H     -1.803180    0.611154   -4.806611
H     -1.259243   -1.045752   -4.291055
H     -3.010183   -0.603419   -4.223631
H     -0.394612   -1.684418   -1.456078
H     -4.128389   -2.887225   -1.749723
H     -4.539361   -4.598268   -3.496353
H     -2.852590   -6.385361   -3.901996
H     -0.754488   -6.447026   -2.578540
H     -0.330991   -4.737898   -0.821263
H     -1.579037    0.465360    0.466199
H     -1.320347   -0.618402    2.338412
H      0.197013   -1.406491    2.769098
H     -1.645958    1.372692    3.629202
H     -0.784849    3.358598    4.804646
H      1.880178    5.566431    6.404963
H      0.419895    5.553410    5.364847
H      0.624128    4.298325    6.666168
H      3.242969    2.310086    3.614429
H      2.375259    0.328916    2.424085
