42

C     -0.965615   -0.229514    1.293977
C     -0.979797   -0.256247    2.847503
C      0.352835   -0.738874    3.422958
C      1.504244    0.207679    3.036835
C      1.279536    0.925621    1.689797
C      0.458225    0.044786    0.708435
C      0.408158    0.564954   -0.769880
C      1.846997    0.796950   -1.304329
C     -0.207515   -0.533419   -1.635975
O     -1.356283   -0.407126   -2.142125
O      0.506499   -1.721675   -1.828822
C     -0.003837   -2.812376   -2.587438
C      1.010862   -3.944014   -2.595687
C     -0.397456    1.910139   -0.803693
C     -0.421799    2.590192   -2.189036
C     -1.836866    1.778557   -0.255471
C     -2.046590    0.715885    0.796431
O     -3.179059    0.578986    1.236532
H     -1.260850   -1.246527    0.949966
H     -1.794023   -0.926345    3.200641
H     -1.185632    0.760488    3.252564
H      0.280195   -0.802701    4.530241
H      0.563666   -1.762077    3.040807
H      2.446008   -0.381781    2.989487
H      1.634538    0.974356    3.831667
H      0.740302    1.877125    1.884709
H      2.276424    1.180247    1.278289
H      0.989340   -0.935921    0.680613
H      2.514703   -0.048561   -1.030632
H      2.285397    1.735804   -0.905257
H      1.850961    0.877718   -2.413117
H     -0.952619   -3.173172   -2.134142
H     -0.198312   -2.484853   -3.631755
H      1.961836   -3.597181   -3.052692
H      1.207941   -4.283883   -1.556838
H      0.616267   -4.797453   -3.186333
H      0.125636    2.633409   -0.141611
H     -1.045639    3.508971   -2.149916
H      0.597894    2.903935   -2.493819
H     -0.838732    1.920113   -2.967747
H     -2.144295    2.757998    0.172347
H     -2.542581    1.565709   -1.087813
