57

C      2.046700    0.504296    1.546693
C      0.699020    0.667089    0.777202
C      0.364078    2.168675    0.547388
C      1.365486    2.920893   -0.353088
C      2.529399    3.472922    0.426532
C      3.791251    3.314774    0.017288
O      0.786368   -0.016683   -0.464161
Si    -0.757074   -0.545771   -1.114114
C     -2.242209   -0.278439    0.011116
C     -0.669108   -2.399009   -1.379804
C     -1.051705    0.262166   -2.823104
C     -1.426403    1.744562   -2.661667
C      0.235737    0.152521   -3.658546
C     -2.197132   -0.460750   -3.556527
O      2.106659    1.422023    2.600955
C      1.905881    0.684108    3.789308
C      3.073557    0.956491    4.743819
C      0.589952    1.127302    4.436491
O      1.841638   -0.699619    3.521214
C      2.298457   -0.838379    2.213255
C      1.665462   -2.036035    1.554125
C      2.452960   -2.900011    0.612887
O      0.509690   -2.332717    1.816029
H      2.883022    0.709595    0.843866
H     -0.088280    0.238934    1.431952
H      0.250721    2.692657    1.521523
H     -0.634518    2.239824    0.077797
H      1.707099    2.267068   -1.184525
H      0.843489    3.786996   -0.813108
H      2.335612    4.063966    1.317038
H      4.024436    2.753038   -0.882021
H      4.604712    3.747802    0.590093
H     -2.108078   -0.852867    0.950400
H     -3.154585   -0.650287   -0.497046
H     -2.381006    0.793388    0.248804
H      0.157942   -2.641713   -2.076911
H     -0.504665   -2.914964   -0.416042
H     -1.627029   -2.764098   -1.801194
H     -1.676369    2.193481   -3.647260
H     -0.579708    2.322491   -2.247113
H     -2.308779    1.862818   -1.998006
H      0.094181    0.620778   -4.656609
H      0.518032   -0.910462   -3.814080
H      1.079731    0.667929   -3.151884
H     -3.128167   -0.442358   -2.951349
H     -2.410067    0.032107   -4.529803
H     -1.931723   -1.516552   -3.772725
H      2.944375    0.386162    5.688652
H      4.029672    0.644733    4.272040
H      3.136427    2.040281    4.980963
H      0.609530    2.218225    4.646629
H      0.420912    0.578626    5.387796
H     -0.261495    0.916790    3.756194
H      3.399370   -1.003601    2.261111
H      2.472616   -3.942825    0.992633
H      1.985899   -2.886947   -0.391390
H      3.497429   -2.537913    0.512054
