48

C     -2.079912    2.151631   -2.631459
C     -2.820625    1.113839   -1.770470
C     -4.310136    1.491784   -1.687734
C     -2.683818   -0.276162   -2.412869
Si    -2.059644    1.080935   -0.024633
C     -3.021142   -0.103630    1.078382
C     -2.210838    2.768728    0.766694
O     -0.351940    0.726902   -0.132358
C     -0.055853   -0.636593    0.113151
C      0.215671   -0.829557    1.615050
C      1.731649   -0.788981    1.808963
C      2.332634   -0.528758    0.436168
C      1.283945   -1.028888   -0.565822
C      1.370636   -2.571046   -0.743492
C      1.154537   -2.798023   -2.191774
O      0.974345   -3.907957   -2.667374
C      1.216176   -1.570759   -3.018160
O      2.376616   -1.592722   -3.840531
C      3.283463   -0.688068   -3.342817
O      4.426829   -0.500657   -3.832815
O      2.799860   -0.013395   -2.247247
C      1.458901   -0.431270   -1.998574
H     -0.995832    1.920665   -2.686900
H     -2.483884    2.158966   -3.667089
H     -2.198773    3.173510   -2.211671
H     -4.877359    0.746891   -1.090384
H     -4.758519    1.528173   -2.703494
H     -4.440594    2.491347   -1.222560
H     -3.213555   -1.045625   -1.811389
H     -3.116432   -0.278167   -3.436237
H     -1.617065   -0.565612   -2.491693
H     -4.075894    0.230399    1.140412
H     -2.995638   -1.133253    0.669937
H     -2.597995   -0.098881    2.101988
H     -1.670219    3.520678    0.157272
H     -1.762995    2.734238    1.781189
H     -3.279152    3.052740    0.851014
H     -0.861419   -1.315396   -0.249764
H     -0.183579   -1.812320    1.948137
H     -0.261010   -0.033095    2.224991
H      2.025793    0.009821    2.524700
H      2.089266   -1.768762    2.196178
H      3.319529   -1.027665    0.319912
H      2.478167    0.568490    0.313507
H      0.607823   -3.120135   -0.149691
H      2.373342   -2.970596   -0.477998
H      0.294992   -1.426803   -3.621395
H      0.781073    0.418187   -2.214029
