61

C      5.864691    2.401271    2.056780
C      5.810987    1.876304    0.622214
C      4.369155    1.808383    0.077149
C      3.795635    0.382840    0.025000
C      3.570469   -0.222663    1.419370
C      2.942822   -1.628087    1.369774
C      1.560804   -1.713402    0.689617
C      0.492674   -0.757590    1.264101
C      0.092973   -1.127944    2.646636
O      0.820057   -1.001529    3.619459
C     -1.310940   -1.603264    2.741886
C     -1.841022   -1.493720    1.297442
C     -2.230610   -2.869366    0.701496
C     -3.689781   -3.268322    0.981743
C     -3.956654   -3.581140    2.459845
C     -5.367452   -4.127072    2.660286
N     -0.750657   -0.896605    0.516751
C     -0.951495   -0.275944   -0.764668
O     -2.087265   -0.320115   -1.310278
O      0.120756    0.382354   -1.388192
C      0.087189    1.052213   -2.656907
C     -0.910594    2.225380   -2.623171
C      1.496189    1.607445   -2.916375
C     -0.272307    0.063770   -3.782562
H      5.466591    3.437586    2.100331
H      6.917952    2.413312    2.408251
H      5.272131    1.758598    2.739024
H      6.306961    0.882634    0.571840
H      6.405267    2.567681   -0.014392
H      3.684929    2.468507    0.655035
H      4.374478    2.199764   -0.964001
H      2.825323    0.443894   -0.506734
H      4.468411   -0.273147   -0.569483
H      4.551550   -0.323468    1.929007
H      2.948037    0.455785    2.039665
H      2.864952   -2.018596    2.406361
H      3.637890   -2.308201    0.830624
H      1.681412   -1.526451   -0.397652
H      1.194264   -2.760111    0.779476
H      0.821566    0.302734    1.236522
H     -1.323090   -2.640556    3.138660
H     -1.885599   -0.937264    3.421144
H     -2.714369   -0.803428    1.280406
H     -1.537670   -3.666049    1.050843
H     -2.117244   -2.830374   -0.403309
H     -3.916474   -4.174052    0.377215
H     -4.371382   -2.459148    0.638963
H     -3.225615   -4.335054    2.824606
H     -3.852350   -2.656716    3.065852
H     -5.537724   -4.330148    3.738575
H     -5.498907   -5.074955    2.096193
H     -6.120165   -3.386669    2.314889
H     -0.687450    2.892935   -1.763435
H     -1.955091    1.866276   -2.523884
H     -0.846397    2.819977   -3.560060
H      1.791072    2.305509   -2.103272
H      2.237417    0.779958   -2.947226
H      1.538186    2.153593   -3.883663
H     -1.318523   -0.292300   -3.690726
H     -0.168081    0.549405   -4.776880
H      0.401654   -0.818848   -3.746323
