47

C      0.507670    2.343643   -0.521792
C      0.604473    2.335782   -2.056809
C     -0.463610    3.313486   -2.534484
C     -1.426781    3.370487   -1.398388
O     -2.487516    3.968777   -1.461228
C     -0.986140    2.598311   -0.193092
C     -1.140575    3.441337    1.092400
C     -1.824687    1.289715   -0.115804
C     -1.148981    0.181892    0.698299
C      0.238122   -0.154299    0.106861
C      0.910298   -1.346376    0.795109
C      2.310394   -1.355435    1.044039
C      2.903469   -2.465564    1.668232
C      2.139451   -3.587812    2.016507
O      2.688525   -4.698466    2.671777
S      4.355738   -5.073039    2.703859
N      4.986939   -5.095649    1.085065
O      5.093540   -4.046400    3.519519
O      4.538273   -6.427864    3.331531
C      0.779440   -3.608299    1.702611
F      0.033730   -4.703369    1.996155
C      0.177159   -2.519714    1.069857
C      3.192703   -0.167384    0.733725
C      2.545236    0.817437   -0.239528
C      1.113382    1.117374    0.209138
H      1.096517    3.232815   -0.191077
H      0.385953    1.325624   -2.457374
H      1.610256    2.655367   -2.398655
H     -0.025986    4.323531   -2.706478
H     -0.956678    2.941554   -3.459541
H     -0.719007    2.900919    1.962093
H     -2.210621    3.656234    1.300466
H     -0.606271    4.413326    0.993429
H     -2.825692    1.503364    0.326318
H     -2.009150    0.888057   -1.142328
H     -1.051280    0.488164    1.762340
H     -1.827373   -0.692396    0.663188
H      0.113761   -0.432408   -0.961215
H      3.960365   -2.433617    1.894748
H      4.191856   -5.336762    0.448686
H      5.664831   -5.891481    1.034037
H     -0.867578   -2.611632    0.796120
H      4.154882   -0.514163    0.298444
H      3.422344    0.359464    1.687092
H      3.141918    1.753314   -0.249706
H      2.551270    0.391456   -1.263041
H      1.165758    1.400993    1.285375
