47

C     -0.028826    3.162098    0.495418
C      0.813114    3.391411    1.765719
C      1.652643    4.634883    1.477466
C      1.681425    4.709455   -0.006541
O      2.351107    5.531489   -0.614140
C      0.862968    3.649460   -0.675999
C      0.017280    4.242765   -1.821052
C      1.833997    2.552284   -1.192042
C      1.154412    1.203031   -1.432043
C      0.466193    0.703557   -0.147266
C     -0.182727   -0.671449   -0.271309
C     -0.992390   -1.096152    0.797485
C     -1.585383   -2.365229    0.774635
C     -1.386148   -3.225432   -0.308662
O     -1.993186   -4.484391   -0.269487
S     -1.112149   -5.946269   -0.381008
N     -1.752896   -7.074980    0.760102
O      0.337980   -5.699553   -0.070980
O     -1.241080   -6.516401   -1.765464
C     -0.607438   -2.794479   -1.400478
Cl    -0.432926   -3.763926   -2.855500
C     -0.003443   -1.531625   -1.373481
C     -1.175055   -0.180429    1.977305
C     -1.471180    1.255627    1.514032
C     -0.607234    1.731175    0.300268
H     -0.903488    3.849330    0.583236
H      1.483634    2.526151    1.954822
H      0.177989    3.561715    2.660945
H      1.164868    5.545494    1.887217
H      2.679027    4.527147    1.889347
H     -0.605083    5.087323   -1.453949
H      0.672206    4.624826   -2.633211
H     -0.657455    3.472960   -2.249548
H      2.320448    2.886224   -2.134840
H      2.653449    2.388074   -0.454970
H      1.947854    0.485992   -1.734358
H      0.420586    1.287338   -2.262981
H      1.243641    0.619087    0.643423
H     -2.193554   -2.695930    1.607816
H     -1.254015   -7.980228    0.608587
H     -2.752573   -7.233948    0.502242
H      0.585843   -1.233160   -2.227914
H     -0.242016   -0.187850    2.581390
H     -2.004347   -0.528865    2.631077
H     -2.544855    1.309373    1.226262
H     -1.365040    1.925382    2.390290
H     -1.318422    1.810565   -0.554692
