47

C      0.822073    2.516057   -1.345211
C     -0.570524    3.065521   -1.757742
C     -1.086717    3.954250   -0.631895
C      0.092343    4.190737    0.226335
O      0.063931    4.959976    1.175726
C      1.312893    3.420774   -0.167581
C      2.391335    4.408828   -0.653677
C      1.857259    2.609973    1.040200
C      0.900430    1.498623    1.525132
C      0.138494    0.761288    0.385873
C     -0.060566   -0.722254    0.691495
C      0.107573   -1.716993   -0.303228
C     -0.115334   -3.064151    0.018459
C     -0.559832   -3.446924    1.288010
O     -0.755246   -4.821153    1.506825
S     -1.266003   -5.560638    2.963516
N     -1.317726   -7.272519    2.734896
O     -2.639296   -5.074260    3.333134
O     -0.297858   -5.242803    4.068432
C     -0.788820   -2.448937    2.258368
F     -1.246878   -2.740857    3.498383
C     -0.551040   -1.106844    1.951999
C      0.581873   -1.376884   -1.696319
C      0.274907    0.075515   -2.060785
C      0.836867    1.002448   -0.970665
H      1.500953    2.623211   -2.222558
H     -0.453056    3.684707   -2.674785
H     -1.319370    2.284160   -1.985599
H     -1.877499    3.438037   -0.046439
H     -1.477625    4.914796   -1.031738
H      3.290627    3.857682   -1.003493
H      2.697647    5.091811    0.168102
H      2.008443    5.024400   -1.496868
H      2.079816    3.290497    1.891735
H      2.825697    2.141630    0.756033
H      0.157327    1.945318    2.221707
H      1.506930    0.777781    2.116942
H     -0.882538    1.196123    0.320973
H      0.050458   -3.829453   -0.730780
H     -0.362886   -7.566736    2.430179
H     -1.957853   -7.451642    1.929114
H     -0.753427   -0.359725    2.709159
H      0.086614   -2.038807   -2.440214
H      1.677398   -1.555795   -1.756943
H     -0.825564    0.180026   -2.157662
H      0.741625    0.312696   -3.041370
H      1.909147    0.717757   -0.859287
