61

C      0.464508    5.736219   -2.288203
C      1.669776    4.808207   -2.138751
C      2.092951    4.158501   -3.468596
C      1.031386    3.241923   -4.112634
C      0.535025    2.095102   -3.211634
C      1.668315    1.138693   -2.792758
C      1.151230   -0.131964   -2.094408
C      0.422125    0.122277   -0.755338
C      1.348262    0.572225    0.319247
O      1.872525    1.673353    0.348395
C      1.484862   -0.412051    1.423796
C      0.540960   -1.563919    1.016873
C      1.284643   -2.918704    0.828099
C      0.750110   -4.020828    1.760883
C      1.146404   -3.785199    3.225584
C      0.617292   -4.901974    4.125307
N     -0.096511   -1.135571   -0.234456
C     -1.259890   -1.773780   -0.785211
O     -1.569207   -2.938133   -0.412779
O     -2.043716   -1.082097   -1.724039
C     -3.157628   -1.621852   -2.453264
C     -3.723851   -0.488464   -3.325863
C     -2.688277   -2.773615   -3.364662
C     -4.266464   -2.103244   -1.487923
H     -0.446949    5.162927   -2.560118
H      0.281575    6.253660   -1.320981
H      0.666018    6.504872   -3.069929
H      2.522074    5.408921   -1.752022
H      1.454529    4.030170   -1.372895
H      2.353093    4.960660   -4.193315
H      3.025988    3.574633   -3.303599
H      1.462740    2.806126   -5.040239
H      0.157587    3.853102   -4.426174
H      0.025577    2.518656   -2.322050
H     -0.229224    1.522286   -3.782241
H      2.401137    1.656317   -2.136869
H      2.219760    0.825134   -3.709383
H      2.010294   -0.816460   -1.918821
H      0.453723   -0.655188   -2.789307
H     -0.410805    0.848139   -0.863938
H      2.547685   -0.709242    1.527150
H      1.147641    0.052026    2.376810
H     -0.250702   -1.652261    1.795496
H      1.168874   -3.273486   -0.223276
H      2.382021   -2.825264    0.978666
H      1.175755   -4.993826    1.428262
H     -0.356930   -4.087943    1.664280
H      2.255035   -3.742994    3.311599
H      0.734683   -2.815630    3.578816
H      1.112845   -5.860475    3.870361
H      0.837468   -4.656206    5.188014
H     -0.483989   -5.004921    4.012722
H     -4.567733   -0.849551   -3.953476
H     -2.929030   -0.072443   -3.990359
H     -4.096494    0.337355   -2.684756
H     -1.930230   -2.410351   -4.095914
H     -3.552641   -3.195840   -3.923386
H     -2.230401   -3.597069   -2.772636
H     -3.979803   -3.044240   -0.968700
H     -5.210650   -2.309195   -2.036833
H     -4.466910   -1.325221   -0.719615
