117

C      1.929023    3.288250    5.102843
C      0.776923    2.638641    5.855728
Si    -0.245984    1.553082    4.715280
C     -1.033273    2.593803    3.355135
C     -1.921497    3.693146    3.927350
C     -1.599919    0.724060    5.716511
C     -1.023121   -0.242166    6.743808
C      0.849513    0.292336    3.987524
C      1.611252   -0.533619    3.554994
C      2.570555   -1.552763    3.103780
C      3.197369   -1.203509    1.723464
C      4.718315   -1.416320    1.776327
C      2.617490   -2.052383    0.550665
C      1.119707   -1.915001    0.173412
O      0.301464   -2.001375    1.327106
Si    -0.702682   -3.422601    1.344032
C      0.372437   -4.954387    1.448569
C     -1.703234   -3.513454   -0.237528
C     -1.860590   -3.330205    2.843730
C     -2.749557   -2.079708    2.702577
C     -2.737073   -4.589721    2.913034
C     -1.019712   -3.222160    4.131659
C      0.757198   -0.607237   -0.595890
O      1.360856    0.483964    0.066653
C      0.666836    1.690176   -0.139342
C      1.629085    2.800452    0.154117
C      2.250891    2.857391    1.412142
C      3.289051    3.758105    1.656409
C      3.725944    4.623053    0.632811
O      4.801209    5.504326    0.808053
C      5.653272    5.523578    1.955726
C      3.086448    4.592914   -0.611960
C      2.050891    3.683254   -0.853134
C      1.236350   -0.682089   -2.030343
O      2.250972   -0.065123   -2.363866
C      0.561765   -1.616008   -3.014817
C      1.560251   -2.538589   -3.744826
O      0.914400   -3.735742   -4.183586
C      0.052561   -3.827427   -5.283474
O     -0.128304   -2.843531   -6.047016
C     -0.860886   -4.964659   -5.378457
C     -1.945606   -5.039088   -4.485908
C     -2.952560   -5.989183   -4.683202
C     -2.863689   -6.890494   -5.747714
C     -1.776010   -6.835308   -6.628703
C     -0.774274   -5.875400   -6.444955
O     -0.355186   -0.967051   -3.899937
C     -0.105969   -0.003456   -4.895352
O     -0.946859    0.098822   -5.833018
C      0.908845    1.058235   -4.760749
C      2.268736    0.846260   -5.070221
C      3.180044    1.908156   -5.016523
C      2.723137    3.203044   -4.746542
C      1.372440    3.427733   -4.484406
C      0.469344    2.363717   -4.492961
H      1.548225    3.896301    4.259041
H      2.478887    3.958105    5.793949
H      2.631455    2.514475    4.733026
H      0.135903    3.425059    6.294191
H      1.187196    2.010245    6.674976
H     -1.638563    1.930848    2.706463
H     -0.233131    3.052781    2.740614
H     -2.781248    3.249561    4.473019
H     -2.305770    4.329964    3.108020
H     -1.347359    4.330913    4.626910
H     -2.176764    1.510503    6.246301
H     -2.284276    0.184286    5.032897
H     -1.851863   -0.751410    7.286316
H     -0.401918   -1.013301    6.248521
H     -0.403291    0.304202    7.488034
H      3.357306   -1.594040    3.889921
H      2.082495   -2.547155    3.089236
H      3.065576   -0.125158    1.516931
H      4.956409   -2.475175    2.012720
H      5.190104   -1.146726    0.801840
H      5.167138   -0.778688    2.561813
H      2.793711   -3.125445    0.790101
H      3.202023   -1.848317   -0.371431
H      0.976993   -2.754827   -0.541179
H      1.008555   -4.906818    2.357555
H     -0.261217   -5.860554    1.481066
H      1.028981   -5.002618    0.558393
H     -2.559702   -4.206591   -0.116983
H     -1.066003   -3.895098   -1.058229
H     -2.082538   -2.506485   -0.498208
H     -3.386827   -2.152732    1.797380
H     -2.138291   -1.148848    2.628117
H     -3.422007   -1.984995    3.581525
H     -3.433797   -4.525338    3.772262
H     -2.122942   -5.504097    3.045200
H     -3.346201   -4.718046    1.993187
H     -0.369016   -2.328806    4.099873
H     -1.684127   -3.141149    5.021030
H     -0.367600   -4.111546    4.262846
H     -0.359464   -0.519989   -0.588692
H      0.280429    1.774813   -1.186230
H     -0.192405    1.747146    0.568026
H      1.963485    2.167216    2.191741
H      3.750246    3.764422    2.634215
H      6.118617    4.524885    2.097809
H      6.460712    6.268493    1.794092
H      5.073734    5.808082    2.860503
H      3.412937    5.249470   -1.408372
H      1.590533    3.658197   -1.827698
H     -0.066872   -2.296041   -2.407489
H      2.042960   -2.023987   -4.592852
H      2.351797   -2.841823   -3.019847
H     -2.046928   -4.316329   -3.675052
H     -3.812288   -6.007182   -4.021800
H     -3.639505   -7.631644   -5.901957
H     -1.706523   -7.534794   -7.449827
H      0.058522   -5.839085   -7.142028
H      2.629617   -0.120063   -5.390701
H      4.223014    1.743780   -5.247278
H      3.422532    4.029089   -4.734512
H      1.016996    4.436847   -4.300037
H     -0.581087    2.566897   -4.307538
