114

C     -0.278906    7.240802    2.918391
O     -1.662333    6.896424    2.919953
C     -2.170615    5.707283    2.368922
C     -1.386507    4.851639    1.573270
C     -1.933912    3.670155    1.055214
C     -3.265335    3.309632    1.342737
O     -3.818312    2.080059    0.927458
C     -3.081616    0.855647    0.816465
O     -1.993384    0.889400    1.721482
C     -1.255426   -0.317933    1.691497
C     -0.254256   -0.275887    2.856139
O     -0.899780    0.089481    4.059019
C     -1.424299   -1.040116    4.729534
C     -2.574970   -0.583394    5.578411
C     -2.390041   -0.284644    6.940679
C     -3.443466    0.241963    7.693606
C     -4.683650    0.478226    7.093767
C     -4.874420    0.191354    5.738154
C     -3.820163   -0.327464    4.978259
C     -0.567955   -0.461774    0.308605
O      0.321706   -1.577123    0.302839
C      1.470340   -1.336727   -0.508690
O      2.154878   -2.567126   -0.739738
C      3.240386   -2.354171   -1.637987
C      3.956224   -3.662761   -1.960287
O      5.039795   -3.408884   -2.835984
C      5.964804   -2.504300   -2.230989
C      7.088790   -2.264208   -3.203835
C      8.425273   -2.506451   -2.843950
C      9.460512   -2.238737   -3.752655
C      9.165734   -1.743531   -5.028131
C      7.835640   -1.497730   -5.392526
C      6.801621   -1.758691   -4.488065
O      5.362654   -1.247150   -1.953437
C      4.309065   -1.421877   -1.027605
C      3.683425   -0.067323   -0.681798
O      4.600956    0.706311    0.081247
C      4.688327    2.032078   -0.405250
C      3.487298    2.843856    0.015629
C      2.668669    3.408195   -0.874994
C      2.452376   -0.363584    0.118719
O      2.339147    0.032168    1.269250
C     -1.704433   -0.623883   -0.737018
O     -1.144932   -0.730284   -2.040905
C     -1.777670   -1.735788   -2.821547
C     -1.388478   -3.119378   -2.378853
C     -2.294830   -3.905803   -1.650847
C     -1.932235   -5.181214   -1.209382
C     -0.668505   -5.693294   -1.521414
C      0.224895   -4.936489   -2.283822
C     -0.128285   -3.644551   -2.709871
C     -2.620303    0.623595   -0.646857
N     -3.772527    0.529666   -1.553261
C     -4.871308   -0.392990   -1.498062
O     -5.160766   -1.107035   -0.502486
C     -5.572201   -0.423233   -2.779480
C     -6.665986   -1.181484   -3.203196
C     -7.085101   -1.041200   -4.539202
C     -6.402887   -0.177139   -5.419237
C     -5.305216    0.580735   -4.964183
C     -4.915568    0.432612   -3.632996
C     -3.799394    1.018176   -2.900286
O     -2.956473    1.827429   -3.381074
C     -4.056268    4.191922    2.098872
C     -3.513270    5.380151    2.602841
H     -0.141651    8.195730    3.458130
H      0.087293    7.362112    1.872685
H      0.306028    6.435001    3.424257
H     -0.356826    5.088556    1.342668
H     -1.299111    3.045663    0.440176
H     -3.765819    0.044201    1.128634
H     -1.924603   -1.196831    1.859327
H      0.318573   -1.234121    2.946327
H      0.471860    0.532770    2.649795
H     -0.630110   -1.497972    5.362712
H     -1.800954   -1.835807    4.036678
H     -1.427880   -0.447206    7.411925
H     -3.296133    0.474011    8.742527
H     -5.499329    0.887096    7.677652
H     -5.832200    0.387951    5.270988
H     -3.972263   -0.522342    3.924864
H     -0.035020    0.501264    0.106959
H      1.150665   -0.914977   -1.488268
H      2.870117   -1.930692   -2.602456
H      3.254373   -4.348853   -2.474118
H      4.309438   -4.171268   -1.028345
H      6.389115   -2.945204   -1.297765
H      8.672005   -2.887559   -1.862959
H     10.487289   -2.435334   -3.471764
H      9.966224   -1.538769   -5.725527
H      7.612103   -1.117746   -6.381219
H      5.778336   -1.561205   -4.787112
H      4.700104   -1.865903   -0.078589
H      3.366094    0.417089   -1.637019
H      4.857788    2.056429   -1.510832
H      5.580463    2.506969    0.048347
H      3.293124    2.978942    1.078555
H      2.826784    3.289659   -1.944955
H      1.811504    3.982298   -0.533595
H     -2.301215   -1.519016   -0.449665
H     -2.878162   -1.627328   -2.819297
H     -1.468260   -1.593173   -3.879088
H     -3.278850   -3.532167   -1.403134
H     -2.629474   -5.774555   -0.628067
H     -0.386563   -6.687470   -1.186534
H      1.185211   -5.356175   -2.556319
H      0.573843   -3.067094   -3.290984
H     -2.019005    1.498544   -0.958868
H     -7.172253   -1.852339   -2.525923
H     -7.933341   -1.608171   -4.892733
H     -6.732519   -0.076831   -6.444807
H     -4.770001    1.241695   -5.633088
H     -5.080815    3.928204    2.323846
H     -4.134858    6.031690    3.206014
