117

C      3.024343   -0.389066   -2.448198
C      4.466414   -0.430329   -1.962598
Si     4.554004   -0.896635   -0.146744
C      6.346555   -1.012704    0.400088
C      7.105568    0.277505    0.123449
C      3.717451   -2.545805    0.171216
C      4.232281   -3.638581   -0.770379
C      3.721444    0.404504    0.804578
C      3.217321    1.304649    1.424648
C      2.675926    2.436966    2.181864
C      1.416775    2.058651    3.003564
C      1.503364    2.690343    4.402497
C      0.096275    2.521739    2.322603
C     -0.346217    1.758853    1.042458
O      0.528663    2.003844   -0.043440
Si     0.151914    3.424703   -1.007798
C      0.951938    3.104641   -2.671126
C      1.077915    4.923529   -0.361993
C     -1.688297    3.918287   -1.332570
C     -1.731613    4.879280   -2.539721
C     -2.281226    4.663388   -0.112526
C     -2.547805    2.685837   -1.678224
C     -0.460250    0.231056    1.279853
O     -1.216490    0.001563    2.460386
C     -0.873570   -1.231172    3.047671
C     -1.786809   -1.489001    4.211875
C     -2.776794   -2.483720    4.135442
C     -3.611274   -2.734370    5.226873
C     -3.478221   -1.988281    6.406583
O     -4.334172   -2.276891    7.476618
C     -4.337562   -1.576164    8.718430
C     -2.496266   -0.981330    6.478149
C     -1.665676   -0.726230    5.381644
C     -1.151109   -0.441403    0.107351
O     -2.358622   -0.311580   -0.024551
C     -0.389485   -1.310609   -0.869279
C     -0.444765   -0.740423   -2.284656
O     -1.774491   -0.758242   -2.794793
C     -2.094569   -0.251672   -4.060971
O     -1.191470    0.257695   -4.779028
C     -3.478707   -0.346452   -4.570190
C     -4.488926   -0.926219   -3.784515
C     -5.796857   -1.036505   -4.278813
C     -6.105429   -0.570098   -5.561056
C     -5.109209    0.004542   -6.351420
C     -3.800373    0.115137   -5.858607
O     -0.928214   -2.631465   -0.869560
C     -0.599714   -3.598757    0.085017
O      0.419516   -3.446294    0.813188
C     -1.425127   -4.819152    0.218506
C     -2.467030   -5.076456   -0.688290
C     -3.230428   -6.242451   -0.573639
C     -2.964855   -7.159683    0.446675
C     -1.942321   -6.905191    1.361109
C     -1.171034   -5.746431    1.246999
H      2.429260    0.318846   -1.834880
H      2.568625   -1.395347   -2.375571
H      2.990288   -0.059044   -3.506983
H      4.921194    0.576256   -2.091625
H      5.041298   -1.169725   -2.558335
H      6.371806   -1.228607    1.489774
H      6.836014   -1.852657   -0.137332
H      8.136886    0.193064    0.521664
H      7.164374    0.466128   -0.967571
H      6.606992    1.135135    0.620359
H      2.635366   -2.422102    0.019589
H      3.904728   -2.846697    1.227447
H      5.341590   -3.751592   -0.689331
H      3.756667   -4.610819   -0.503547
H      3.962926   -3.390645   -1.820519
H      2.466976    3.267668    1.488429
H      3.494213    2.788767    2.842508
H      1.389739    0.963761    3.175871
H      2.402135    2.322956    4.940062
H      1.556627    3.795602    4.319436
H      0.617242    2.413763    5.013362
H     -0.733551    2.424058    3.058526
H      0.152331    3.606190    2.106522
H     -1.375898    2.089593    0.825158
H      1.976053    2.707677   -2.508730
H      0.356909    2.370886   -3.249537
H      1.023624    4.052459   -3.243176
H      0.697474    5.228032    0.630520
H      0.938112    5.769370   -1.065760
H      2.159546    4.695463   -0.308738
H     -1.070346    5.761630   -2.381635
H     -2.762999    5.256079   -2.701439
H     -1.419940    4.366235   -3.475497
H     -3.354190    4.895739   -0.288395
H     -2.210901    4.075876    0.820441
H     -1.750956    5.625054    0.059021
H     -2.028084    2.047591   -2.424002
H     -3.518342    3.005333   -2.117987
H     -2.792325    2.079337   -0.786376
H      0.577852   -0.168153    1.362373
H      0.177233   -1.208338    3.413569
H     -0.981863   -2.053215    2.318627
H     -2.888419   -3.077466    3.238509
H     -4.368519   -3.507417    5.160602
H     -3.355030   -1.696698    9.225999
H     -4.564423   -0.497734    8.553727
H     -5.123911   -2.006823    9.374760
H     -2.368622   -0.388884    7.372707
H     -0.910283    0.043256    5.455562
H      0.681863   -1.348086   -0.588934
H     -0.062226    0.301955   -2.275316
H      0.199790   -1.356699   -2.945353
H     -4.266355   -1.310639   -2.794663
H     -6.571438   -1.492026   -3.669356
H     -7.109175   -0.676231   -5.943245
H     -5.347400    0.358448   -7.347669
H     -3.048559    0.575387   -6.493037
H     -2.687389   -4.386240   -1.494615
H     -4.023498   -6.438579   -1.278524
H     -3.562543   -8.055794    0.537288
H     -1.741534   -7.613410    2.156086
H     -0.387127   -5.568955    1.974831
