46

C     -2.039746    7.294313    4.155865
C     -2.656261    6.147709    3.413025
O     -3.912490    6.102621    3.313300
C     -1.829435    5.079975    2.791326
C     -0.428238    5.179542    2.721705
C      0.324926    4.159443    2.136239
Cl     2.077502    4.296126    2.106760
C     -0.333761    3.031863    1.617382
N      0.398512    1.955794    1.019143
C      0.442237    0.661008    1.707859
C      1.390102   -0.323228    1.009927
N      1.175432   -0.322760   -0.445585
C      1.371032   -1.525668   -1.211664
N      0.890164   -1.678380   -2.475979
C      1.322596   -2.906219   -2.809202
C      2.034283   -3.455385   -1.786506
N      2.076450   -2.595888   -0.762019
C      2.607783   -4.719611   -1.874609
C      2.437614   -5.441879   -3.081344
C      2.966436   -6.847750   -3.215493
F      4.024484   -7.068177   -2.349279
F      1.953960   -7.742358   -2.922618
F      3.409612   -7.071673   -4.507263
C      1.674644   -4.868643   -4.135508
C      1.116206   -3.582485   -4.005592
C      0.863545    0.926126   -1.156599
C      1.078210    2.149876   -0.263575
N     -1.688130    2.946356    1.698781
C     -2.439991    3.929751    2.257947
H     -1.478859    7.943592    3.452609
H     -2.823263    7.906548    4.648246
H     -1.352923    6.912022    4.939485
H      0.088589    6.042981    3.119285
H     -0.581594    0.227878    1.736773
H      0.790040    0.809467    2.753398
H      2.444628   -0.044402    1.222795
H      1.200749   -1.332518    1.433392
H      2.570442   -2.718738    0.149770
H      3.155490   -5.129332   -1.035355
H      1.503476   -5.423563   -5.050380
H      0.539527   -3.140440   -4.808155
H      1.518401    1.025598   -2.049437
H     -0.193602    0.896084   -1.497340
H      0.687706    3.053606   -0.781744
H      2.166007    2.290500   -0.085862
H     -3.514940    3.806171    2.291838
