46

C      1.568124   -7.016912   -2.639148
C      2.020396   -6.667632   -1.252778
O      2.945490   -7.350377   -0.734300
C      1.411719   -5.547512   -0.486519
C      1.851531   -5.257019    0.816265
C      1.284657   -4.205167    1.540648
Cl     1.813352   -3.922555    3.194649
C      0.271920   -3.432725    0.948384
N     -0.333356   -2.335814    1.652131
C      0.456663   -1.147021    1.981809
C      0.076790   -0.006357    1.035613
N     -1.386157    0.145530    0.977153
C     -1.972538    1.446375    0.775453
N     -3.114327    1.635835    0.059005
C     -3.302064    2.964215    0.146596
C     -2.316776    3.536432    0.891371
N     -1.464024    2.590410    1.302992
C     -2.285577    4.902502    1.159503
C     -3.310179    5.709048    0.608469
C     -3.358664    7.186608    0.902291
F     -2.089383    7.682524    1.145223
F     -3.894446    7.875920   -0.171531
F     -4.147590    7.403269    2.016423
C     -4.345955    5.099812   -0.151690
C     -4.342065    3.713141   -0.393588
C     -2.194506   -1.054925    0.713410
C     -1.789424   -2.185703    1.661280
N     -0.151192   -3.735916   -0.308541
C      0.384251   -4.755564   -1.029285
H      2.147526   -7.879652   -3.032396
H      1.725142   -6.151181   -3.316243
H      0.492676   -7.292080   -2.626833
H      2.629658   -5.851906    1.278558
H      0.243545   -0.844566    3.029922
H      1.546141   -1.349586    1.894682
H      0.457517   -0.232417    0.016016
H      0.574453    0.920321    1.384478
H     -0.631890    2.717357    1.919864
H     -1.498455    5.320977    1.773920
H     -5.156346    5.696931   -0.550615
H     -5.127633    3.245031   -0.972610
H     -3.275984   -0.844645    0.863546
H     -2.041692   -1.375966   -0.339698
H     -2.122383   -1.936195    2.692079
H     -2.290893   -3.132375    1.362712
H      0.002657   -4.938634   -2.023980
