35

C     -2.521629    3.105512   -0.719174
O     -2.174042    1.750431   -0.985120
C     -0.882851    1.215658   -0.846693
C      0.209495    1.998462   -0.423032
C      1.493399    1.435733   -0.289167
C      2.659812    2.246092    0.162316
O      3.750475    1.670122    0.426472
C      2.587475    3.734559    0.346779
Br     1.771914    4.155802    2.052989
C      1.664680    0.073265   -0.586840
C      0.587373   -0.706227   -1.009173
C     -0.693786   -0.142355   -1.138986
O     -1.806269   -0.893409   -1.556044
C     -1.817540   -2.304524   -1.775937
C     -1.687049   -3.050178   -0.474225
C     -2.547094   -2.753878    0.596439
C     -2.435286   -3.450531    1.803668
C     -1.471556   -4.452275    1.947563
C     -0.620540   -4.761554    0.883031
C     -0.729113   -4.067409   -0.326085
H     -1.950651    3.784583   -1.387070
H     -3.604757    3.246164   -0.912402
H     -2.315879    3.351047    0.344163
H      0.052282    3.039828   -0.189018
H      2.017227    4.207536   -0.479356
H      3.610540    4.167262    0.334919
H      2.637600   -0.394220   -0.499380
H      0.766615   -1.746867   -1.236359
H     -2.787894   -2.579750   -2.239456
H     -1.020404   -2.582471   -2.499003
H     -3.300450   -1.982203    0.496407
H     -3.096873   -3.214736    2.627171
H     -1.386336   -4.990833    2.882513
H      0.122653   -5.540510    0.994214
H     -0.064465   -4.320646   -1.142637
