51

C      2.006819   -1.462748    1.145976
C      1.849458   -3.001221    1.060552
C      3.132668   -3.558933    0.458223
C      3.813451   -2.382018   -0.127746
O      4.821526   -2.486891   -0.810883
C      3.182374   -1.065235    0.202244
C      4.205933   -0.179550    0.941699
C      2.714880   -0.342614   -1.094193
C      1.392208   -0.893366   -1.637852
C      0.219476   -0.813884   -0.612946
C      0.708816   -0.659295    0.853173
C     -0.429861   -1.025438    1.811958
C     -1.622817   -0.086514    1.627307
C     -2.035343    0.099354    0.173467
C     -3.338771    0.339442   -0.069843
C     -3.876846    0.449834   -1.434908
O     -5.084031    0.768561   -1.599917
C     -3.012229    0.198625   -2.631893
C     -1.705196   -0.503512   -2.237166
C     -1.003113    0.129427   -0.980518
C     -0.640831    1.637780   -1.319057
C      0.056947    2.462543   -0.228901
O      0.106692    1.723466   -2.505587
H      2.296215   -1.240463    2.199630
H      1.673469   -3.434298    2.069625
H      1.000537   -3.302885    0.416395
H      2.908423   -4.311788   -0.328273
H      3.776646   -4.008449    1.244387
H      3.721012    0.756322    1.293940
H      4.624752   -0.710352    1.824475
H      5.046839    0.092375    0.267545
H      3.494417   -0.428429   -1.883181
H      2.593628    0.741845   -0.907589
H      1.563179   -1.958951   -1.910698
H      1.159973   -0.393332   -2.594002
H     -0.217720   -1.835911   -0.646453
H      0.970304    0.392736    1.057621
H     -0.761427   -2.073407    1.643314
H     -0.076963   -0.949768    2.863751
H     -1.398308    0.897865    2.083952
H     -2.465948   -0.515101    2.213751
H     -4.041479    0.408086    0.752894
H     -3.563116   -0.443551   -3.352804
H     -2.797835    1.160283   -3.143734
H     -1.034419   -0.502819   -3.120966
H     -1.955877   -1.568682   -2.031750
H     -1.605949    2.171143   -1.479328
H     -0.448613    2.367854    0.747221
H      0.015539    3.537540   -0.506645
H      1.127248    2.208035   -0.141776
H     -0.022239    2.637260   -2.873018
