51

C     -1.339505    1.522354   -1.912298
C     -1.035607    3.000745   -1.564497
C     -0.374996    3.630472   -2.784133
C      0.030919    2.481497   -3.624992
O      0.710574    2.619849   -4.631382
C     -0.474802    1.152891   -3.155824
C     -1.343578    0.518075   -4.260879
C      0.711625    0.203074   -2.821569
C      1.342590    0.497555   -1.456462
C      0.330043    0.410299   -0.273592
C     -1.148632    0.525196   -0.735300
C     -2.033092    0.870706    0.468138
C     -1.969621   -0.230896    1.527032
C     -0.552110   -0.668439    1.869951
C     -0.330500   -1.106275    3.124921
C      1.011223   -1.473604    3.604465
O      1.143118   -1.965358    4.756371
C      2.221867   -1.281413    2.743746
C      1.915667   -0.368426    1.547990
C      0.574306   -0.724811    0.808777
C      0.692045   -2.206007    0.249154
C     -0.511580   -2.774391   -0.514907
O      1.846032   -2.358269   -0.537686
H     -2.417203    1.487717   -2.196401
H     -1.971245    3.543288   -1.305687
H     -0.345716    3.097898   -0.703558
H     -1.096913    4.264130   -3.342828
H      0.512548    4.231545   -2.489798
H     -1.819145   -0.414543   -3.887868
H     -2.147084    1.215856   -4.583265
H     -0.724174    0.266084   -5.148793
H      0.374934   -0.851480   -2.832813
H      1.495974    0.278523   -3.606835
H      1.761426    1.528029   -1.499438
H      2.220985   -0.156104   -1.317386
H      0.512669    1.352676    0.287992
H     -1.502737   -0.445609   -1.121426
H     -3.088932    0.987966    0.139533
H     -1.714213    1.833437    0.924299
H     -2.480026    0.162413    2.434373
H     -2.563378   -1.105050    1.193505
H     -1.146698   -1.150256    3.837166
H      2.590123   -2.268981    2.394709
H      3.032507   -0.822079    3.349927
H      1.865765    0.673557    1.937099
H      2.782865   -0.405129    0.856857
H      0.786153   -2.876589    1.134074
H     -0.388189   -3.873789   -0.617746
H     -1.458737   -2.611243    0.026982
H     -0.573907   -2.374175   -1.541478
H      2.081981   -3.323138   -0.536022
