40

C     -1.884581   -2.696426    1.593118
O     -1.455843   -1.591344    0.808486
C     -2.165772   -1.135232   -0.305558
O     -3.231236   -1.708740   -0.666303
C     -1.604771    0.016437   -1.099859
C     -2.629477    0.816066   -1.829650
O     -3.696572    1.155280   -1.341152
C     -2.190737    1.238735   -3.183974
C     -0.742781    0.750294   -3.269889
C     -0.600877   -0.384110   -2.219161
C     -1.017343   -1.714858   -2.907704
C      0.867482   -0.549542   -1.715694
C      1.460939    0.600475   -0.859134
C      1.472678    0.278167    0.623364
C      2.314935   -0.876922    1.105757
C      0.780216    1.049321    1.485042
C      0.710160    0.797365    2.939761
C      0.004985    1.593562    3.738375
H     -2.883744   -2.487243    2.030399
H     -1.932278   -3.611567    0.965720
H     -1.158685   -2.861257    2.415612
H     -1.146649    0.718593   -0.382925
H     -2.246351    2.343378   -3.292212
H     -2.821903    0.744651   -3.953445
H     -0.498749    0.413949   -4.301762
H     -0.069893    1.601376   -3.036868
H     -0.356518   -1.929678   -3.775263
H     -2.064616   -1.666208   -3.276023
H     -0.934341   -2.573183   -2.207119
H      1.517720   -0.672132   -2.610524
H      0.946613   -1.508980   -1.159723
H      0.945817    1.562126   -1.059799
H      2.516646    0.761592   -1.168053
H      1.665276   -1.654395    1.560550
H      3.055971   -0.522553    1.853063
H      2.879290   -1.338832    0.268460
H      0.232228    1.902856    1.101926
H      1.223834   -0.045703    3.382970
H     -0.039698    1.391910    4.800786
H     -0.532828    2.448535    3.347370
