40

C     -0.031885    0.472084    4.141901
O      0.276329   -0.566218    3.220279
C      0.973359   -0.334420    2.031394
O      1.358421    0.830716    1.732543
C      1.199929   -1.484963    1.081625
C      2.414321   -1.317586    0.233812
O      3.494575   -0.945080    0.666187
C      2.208716   -1.722253   -1.175262
C      0.813056   -2.341457   -1.171090
C      0.055696   -1.739386    0.046697
C     -0.955730   -2.756633    0.620259
C     -0.671479   -0.410808   -0.365238
C     -1.886039   -0.577877   -1.302917
C     -2.377360    0.769612   -1.780419
C     -2.040689    1.218011   -3.180184
C     -3.098293    1.540271   -0.942934
C     -3.626306    2.873255   -1.300910
C     -4.323585    3.590382   -0.424209
H     -0.667526    1.239105    3.650668
H      0.903802    0.941104    4.513323
H     -0.585730    0.043383    5.002060
H      1.377750   -2.394041    1.698185
H      2.244070   -0.826082   -1.831312
H      2.972937   -2.464051   -1.492947
H      0.316606   -2.171188   -2.146174
H      0.923299   -3.442295   -1.044373
H     -0.438335   -3.662551    1.002831
H     -1.527981   -2.301616    1.456832
H     -1.665694   -3.094576   -0.163299
H      0.065379    0.271792   -0.844375
H     -1.050025    0.100582    0.545446
H     -1.633569   -1.211403   -2.174521
H     -2.713862   -1.092644   -0.768807
H     -1.464889    2.166864   -3.144938
H     -2.973040    1.368317   -3.764235
H     -1.418532    0.466492   -3.709681
H     -3.308305    1.166982    0.054000
H     -3.456200    3.291769   -2.284324
H     -4.703422    4.564841   -0.702713
H     -4.522901    3.219238    0.573625
