48

C     -0.062689    1.398651   -0.022596
C      1.361136    1.135580    0.555062
C      2.424323    2.077787   -0.038528
C      3.807629    1.722788    0.444600
O      4.699749    2.548020    0.322710
C      4.152578    0.363493    1.009972
C      2.931725   -0.530578    1.323207
N      1.775501   -0.285119    0.431938
C      2.051329   -0.735419   -0.956305
C      1.937093   -2.232456   -1.057680
C      2.155053   -2.862718   -2.213905
C     -0.628110    2.674502    0.382668
O     -1.217649    3.346972   -0.713459
C     -1.513637    4.676649   -0.350826
C     -1.652925    1.922710    1.172058
O     -2.615310    2.244152    1.916806
N     -1.077703    0.643736    0.697590
C     -1.450072   -0.729466    0.844032
C     -1.219123   -1.640924   -0.193171
C     -1.578410   -2.983537   -0.045715
C     -2.174923   -3.428716    1.143666
C     -2.594546   -4.861345    1.287768
C     -2.444132   -2.505752    2.166107
C     -2.082978   -1.163269    2.016168
H     -0.141310    1.226676   -1.117926
H      1.294186    1.379402    1.643009
H      2.203887    3.124288    0.261590
H      2.406451    2.035594   -1.148562
H      4.813223   -0.157922    0.284478
H      4.738713    0.499830    1.944559
H      3.238464   -1.597883    1.276598
H      2.619917   -0.360666    2.377714
H      3.061196   -0.423056   -1.297857
H      1.327074   -0.299177   -1.670772
H      1.659487   -2.816498   -0.184632
H      2.059976   -3.942206   -2.270223
H      2.426847   -2.309722   -3.108058
H      0.024104    3.301731    1.036244
H     -2.178658    4.717514    0.540609
H     -0.580204    5.252967   -0.166003
H     -2.048472    5.162496   -1.192422
H     -0.787314   -1.307350   -1.125847
H     -1.396140   -3.673673   -0.860298
H     -2.571824   -5.171272    2.354310
H     -3.625692   -4.985132    0.896185
H     -1.909308   -5.528055    0.722055
H     -2.930764   -2.825357    3.079322
H     -2.284490   -0.464677    2.818143
