79

C     -1.252513   -1.836168   -0.765057
C      0.221639   -1.936645   -0.332307
C      0.673524   -3.335018   -0.745160
C     -0.595149   -4.103227   -0.844453
O     -0.623586   -5.307561   -1.049430
C     -1.819644   -3.272178   -0.614016
C     -2.895911   -3.568459   -1.678053
C     -2.337521   -3.569511    0.819582
C     -3.237405   -2.467174    1.379504
C     -2.498755   -1.115396    1.385909
C     -3.287002    0.042018    1.994242
C     -2.740635    1.341296    1.858872
C     -3.462217    2.446643    2.358969
C     -4.683507    2.261497    3.017171
O     -5.390590    3.350293    3.523068
C     -5.202652    0.977649    3.170990
C     -4.517979   -0.125304    2.662369
C     -1.384854    1.456944    1.160284
C     -0.867115    2.906899    0.968845
C      0.622168    2.967306    0.586069
C      1.068968    4.413484    0.320409
C      2.599080    4.582368    0.316333
C      3.357555    3.652936   -0.647881
C      2.947436    3.840891   -2.114314
C      3.858770    3.068805   -3.028858
O      4.997866    3.547073   -3.282795
N      3.453745    1.832862   -3.653322
C      3.959670    1.538301   -4.996996
C      2.617546    0.836442   -2.963354
C      3.444619   -0.396759   -2.554307
C      4.340169   -0.142139   -1.329896
C      3.586134   -0.319243   -0.011117
C     -1.463026    0.690239   -0.184821
C     -2.099672   -0.734917   -0.064199
H     -1.232022   -1.576699   -1.850380
H      0.848091   -1.172864   -0.835661
H      0.319548   -1.822009    0.768247
H      1.173832   -3.311958   -1.737568
H      1.350294   -3.777272    0.017177
H     -2.483291   -3.439264   -2.702015
H     -3.263142   -4.612999   -1.583613
H     -3.760084   -2.882296   -1.561911
H     -2.893104   -4.532993    0.832562
H     -1.478964   -3.691307    1.519226
H     -3.499507   -2.755420    2.420419
H     -4.175047   -2.399993    0.785961
H     -1.580837   -1.240878    2.000943
H     -3.106060    3.458324    2.240851
H     -5.048726    4.299267    3.423211
H     -6.146820    0.833892    3.681383
H     -4.969427   -1.098145    2.791473
H     -0.644108    0.937783    1.809227
H     -1.481881    3.431497    0.204555
H     -0.953171    3.453180    1.931861
H      0.808268    2.378774   -0.331894
H      1.224673    2.532474    1.413823
H      0.662058    5.078873    1.113470
H      0.646314    4.761960   -0.646822
H      2.977874    4.400291    1.346225
H      2.838854    5.638902    0.064694
H      3.213657    2.598844   -0.343390
H      4.442734    3.873649   -0.542565
H      3.013383    4.918723   -2.378085
H      1.894951    3.530391   -2.276039
H      5.064397    1.426483   -4.968104
H      3.692042    2.365900   -5.687759
H      3.518400    0.600441   -5.397526
H      1.805631    0.511511   -3.650347
H      2.117803    1.264451   -2.073651
H      4.085444   -0.713073   -3.405161
H      2.759802   -1.247037   -2.350329
H      5.178529   -0.872274   -1.344034
H      4.787468    0.873908   -1.376195
H      4.254795   -0.060769    0.836140
H      2.691356    0.334154    0.030825
H      3.265724   -1.376281    0.106847
H     -2.071518    1.290329   -0.899149
H     -0.456541    0.628258   -0.634579
H     -3.054956   -0.684931   -0.636697
