20

O     -0.199546    1.624496   -2.539923
C     -0.191910    1.190378   -1.354876
C     -1.312554    1.513754   -0.555004
C     -1.476375    1.130681    0.779403
C     -2.717191    1.492350    1.546193
F     -3.789374    0.776209    1.047376
F     -2.569653    1.200958    2.891059
F     -2.973659    2.845170    1.413047
S     -0.259358    0.187735    1.473064
C      1.005404   -0.113844    0.398177
C      0.923511    0.416357   -0.912198
C      1.995184    0.152451   -1.795655
C      3.095091   -0.606912   -1.384278
C      3.151166   -1.118980   -0.087963
C      2.107755   -0.873822    0.804186
H     -2.102127    2.101704   -1.010098
H      1.989603    0.531067   -2.810362
H      3.906552   -0.798923   -2.074466
H      4.004519   -1.706434    0.225421
H      2.159013   -1.274639    1.809053
