20

O     -2.617281   -1.676358    0.049707
C     -2.073856   -0.683215    0.607569
C     -2.856714    0.018023    1.553935
C     -2.429869    1.144433    2.263322
C     -3.319090    1.809538    3.275902
F     -3.463284    0.981467    4.373516
F     -4.563706    2.049590    2.721884
F     -2.780320    3.014894    3.690853
S     -0.853767    1.685108    1.989425
C     -0.048778    0.749662    0.839257
C     -0.732570   -0.343556    0.254271
C     -0.039347   -1.112826   -0.708168
C      1.276062   -0.800513   -1.065687
C      1.928007    0.281301   -0.473712
C      1.267670    1.057046    0.478609
H     -3.861216   -0.344588    1.742906
H     -0.509562   -1.961048   -1.190277
H      1.791276   -1.400772   -1.804565
H      2.946263    0.518643   -0.753614
H      1.780687    1.895540    0.933341
