35

C      2.458372    1.395816   -0.584408
C      2.288697    0.006882   -1.231913
C      2.514440    0.135892   -2.747820
C      0.923664   -0.706471   -0.920937
C     -0.213296    0.250381   -0.589026
O     -0.931514    0.667373   -1.538918
C     -0.464467    0.755450    0.787514
C     -1.354137    1.828272    0.991125
C     -1.592879    2.329178    2.279827
C     -2.508951    3.500862    2.476665
C     -0.913924    1.774339    3.372003
C     -0.034745    0.707742    3.183405
C      0.186858    0.192817    1.900605
S      1.272211   -1.166617    1.695786
O      0.933045   -2.229815    2.704527
O      2.692872   -0.727852    1.911776
N      1.092560   -1.792695    0.077515
C     -0.031794   -2.742612    0.035566
H      3.481516    1.782453   -0.779234
H      1.728553    2.120887   -1.003918
H      2.327705    1.352220    0.512682
H      3.112873   -0.635023   -0.848691
H      1.710743    0.748952   -3.209556
H      3.495810    0.613622   -2.956373
H      2.520586   -0.868321   -3.223241
H      0.616481   -1.203090   -1.870804
H     -1.857767    2.285008    0.147531
H     -3.328802    3.486441    1.727220
H     -2.968677    3.475078    3.487653
H     -1.932430    4.442781    2.365031
H     -1.067314    2.165320    4.370329
H      0.474674    0.281588    4.038604
H      0.180300   -3.611502    0.693285
H     -0.979968   -2.261160    0.360905
H     -0.162525   -3.148863   -0.990186
