36

C     -1.207076    2.215146    1.030609
C      0.103159    1.508361    1.429905
C      0.614428    2.105749    2.753692
C      1.190192    1.583561    0.301821
O      1.413124    2.961398    0.059020
C      0.649771    0.897094   -0.961158
O      0.227118    1.611483   -1.912698
C      0.520523   -0.579184   -1.063980
C     -0.312865   -1.145415   -2.048368
C     -0.456596   -2.537087   -2.154050
C     -1.382632   -3.125085   -3.177509
C      0.214972   -3.369849   -1.250115
C      1.048947   -2.819836   -0.276288
C      1.209170   -1.431904   -0.184267
S      2.296783   -0.772635    1.019161
O      3.629441   -1.461053    0.903410
O      1.739928   -1.029414    2.391114
N      2.465741    0.953279    0.765518
C      3.599300    1.206776   -0.142447
H     -1.950307    2.136175    1.852747
H     -1.032240    3.291168    0.817878
H     -1.655702    1.737890    0.134644
H     -0.165462    0.448372    1.621568
H      0.853562    3.183942    2.633850
H      1.524300    1.576963    3.104503
H     -0.158436    2.000711    3.544870
H      1.847527    3.079263   -0.825361
H     -0.862220   -0.506189   -2.729273
H     -1.406200   -2.494421   -4.091697
H     -2.406982   -3.188979   -2.754814
H     -1.048039   -4.142653   -3.471976
H      0.096589   -4.445200   -1.301687
H      1.573176   -3.476535    0.406715
H      4.523555    0.731776    0.246957
H      3.833288    2.289913   -0.185332
H      3.393165    0.821117   -1.164402
