32

C      0.052720    3.384299   -1.503208
C     -0.734752    2.797836   -0.359971
C     -2.135890    3.293586   -0.090019
C     -0.149880    1.849128    0.404115
C     -0.822478    1.139338    1.554786
C     -1.576388   -0.113454    1.081254
N     -0.686563   -1.048715    0.354507
C     -1.461937   -2.021127   -0.459341
C     -1.809184   -3.303555    0.309294
C     -0.559462   -3.916548    0.865596
O     -0.565605   -5.067918    1.272683
C      0.698714   -3.103638    0.901264
C      0.340010   -1.653433    1.253194
H     -0.527673    4.155901   -2.050471
H      0.326047    2.581514   -2.220470
H      0.980544    3.856979   -1.116755
H     -2.186131    3.758684    0.916602
H     -2.859842    2.455993   -0.149239
H     -2.445763    4.059211   -0.831160
H      0.866387    1.540774    0.170297
H     -0.046734    0.851326    2.294973
H     -1.521027    1.815879    2.089884
H     -2.046153   -0.619055    1.954242
H     -2.404293    0.227313    0.423496
H     -0.855132   -2.292661   -1.350756
H     -2.395495   -1.572207   -0.863826
H     -2.297952   -4.020498   -0.385166
H     -2.510866   -3.074368    1.139305
H      1.398209   -3.508196    1.665022
H      1.196113   -3.144236   -0.091480
H      0.005170   -1.642739    2.315949
H      1.265265   -1.041546    1.195595
