32

C      1.754340    3.518772    0.920771
C      2.100455    2.131343    0.356563
C      3.051338    2.271052   -0.844373
C      0.820781    1.302755    0.013542
N      0.170364    1.820813   -1.202123
S     -1.362941    1.041448   -1.415236
O     -1.849593    1.288264   -2.815325
O     -2.357307    1.582115   -0.426013
C     -1.132456   -0.674200   -1.154757
C     -2.123629   -1.577798   -1.554884
C     -1.933365   -2.949808   -1.385575
C     -0.752901   -3.431713   -0.804399
C     -0.530474   -4.908515   -0.661147
C      0.247202   -2.526137   -0.417487
C      0.062731   -1.138963   -0.576125
C      1.117427   -0.186894   -0.134899
O      2.250954   -0.639191    0.188083
H      1.308256    4.175654    0.145639
H      2.675345    4.011685    1.299379
H      1.044392    3.426512    1.769961
H      2.652313    1.605807    1.167603
H      3.989528    2.775183   -0.528449
H      2.584214    2.873051   -1.652585
H      3.319700    1.275157   -1.253382
H      0.121812    1.399037    0.876003
H     -0.046474    2.834112   -1.072780
H     -3.040066   -1.219083   -2.006453
H     -2.705485   -3.636367   -1.710422
H      0.100154   -5.124704    0.227445
H     -1.496847   -5.441242   -0.532920
H     -0.021944   -5.294778   -1.569018
H      1.163997   -2.906846    0.016660
