36

C      1.174416    2.029743    0.091136
C     -0.055978    1.087693    0.197083
C     -1.201070    1.828240    0.952168
O     -1.840075    0.834050    1.734320
C     -1.062763   -0.301002    1.825685
O     -1.404945   -1.307338    2.501639
C      0.208085   -0.192375    1.059072
C      1.404662   -0.129874    2.030732
C      0.358986   -1.303621    0.071078
O      0.675377   -2.440925    0.389527
C      0.092215   -0.901682   -1.339304
C      1.358896   -0.808390   -2.220702
C      1.190088    0.517365   -2.849617
O      1.918489    0.958996   -3.775870
O      0.157726    1.245320   -2.295974
C     -0.472337    0.531401   -1.236641
C     -1.991988    0.403492   -1.531147
C     -2.194829   -0.885044   -2.316269
C     -1.000521   -1.702569   -1.986999
C     -0.909013   -3.006231   -2.282884
H      1.482435    2.416658    1.084881
H      2.041535    1.502638   -0.358284
H      0.928316    2.911858   -0.537678
H     -1.919785    2.338153    0.277911
H     -0.794982    2.594855    1.647696
H      1.302647    0.730728    2.725980
H      2.362744   -0.041922    1.476025
H      1.451849   -1.056999    2.641817
H      2.288001   -0.807610   -1.610205
H      1.413746   -1.606185   -2.992240
H     -2.371506    1.281288   -2.097679
H     -2.586231    0.300346   -0.602013
H     -2.217228   -0.681203   -3.408602
H     -3.131756   -1.396646   -2.003636
H     -0.011102   -3.567158   -2.044428
H     -1.732088   -3.520808   -2.768815
