52

C      0.860629    1.196291    3.012919
C      1.404084   -0.186389    3.463391
C      1.631356   -1.127347    2.316213
O      1.769668   -2.355615    2.566095
C      1.722043   -0.635997    0.919452
C      1.789293   -1.560886   -0.138291
C      1.860060   -1.131771   -1.470672
C      1.899533   -2.149000   -2.596205
C      0.673908   -2.009714   -3.506941
C      3.200739   -2.036925   -3.399588
C      1.892911    0.243558   -1.737824
C      1.839300    1.171368   -0.698799
C      1.708517    0.754772    0.643600
C      1.705468    1.759316    1.808863
C      3.181949    1.967429    2.231266
C      1.149215    3.164601    1.443341
C     -0.323502    3.123855    1.057721
C     -1.166063    2.607909    2.226020
C     -0.713478    1.225724    2.791699
C     -1.438062    1.079932    4.160117
C     -1.199557    0.099529    1.880091
O     -1.416979   -1.049628    2.357828
O     -1.379015    0.317760    0.510252
C     -1.820232   -0.698100   -0.381938
H      1.054139    1.882476    3.869693
H      0.730978   -0.667046    4.198504
H      2.369565   -0.050304    3.994765
H      1.772638   -2.622845    0.074249
H      1.870400   -3.176570   -2.169518
H      0.674217   -2.816318   -4.270827
H      0.671364   -1.029361   -4.028901
H     -0.257401   -2.100144   -2.907945
H      3.253499   -2.852172   -4.152449
H      3.262769   -1.063370   -3.930353
H      4.075803   -2.133599   -2.721799
H      1.966514    0.604427   -2.755547
H      1.898723    2.213675   -0.967520
H      3.249717    2.591331    3.148439
H      3.748832    2.478513    1.422832
H      3.695971    1.002864    2.425565
H      1.734745    3.648374    0.634936
H      1.256930    3.842321    2.320716
H     -0.471952    2.517460    0.143869
H     -0.655236    4.155673    0.810504
H     -2.230656    2.560883    1.905187
H     -1.113957    3.377351    3.029744
H     -1.093904    1.855319    4.878210
H     -2.536561    1.197513    4.031698
H     -1.273631    0.090105    4.629992
H     -2.841650   -1.030980   -0.101530
H     -1.842231   -0.291353   -1.413624
H     -1.124059   -1.562216   -0.352203
