44

C     -1.279663   -5.124952    2.365814
O     -0.653640   -4.328386    1.368017
C      0.577029   -3.695729    1.571736
O      1.197299   -3.832498    2.661400
C      1.177226   -2.866907    0.474853
C      1.602701   -3.732483   -0.652212
O      2.484471   -4.572714   -0.561909
C      0.858458   -3.463880   -1.911933
C     -0.079426   -2.299731   -1.541850
C      0.174045   -1.078281   -2.403629
C     -0.810328   -0.630852   -3.301841
C     -0.593566    0.514779   -4.073371
C      0.607062    1.220032   -3.959199
C      1.594755    0.779833   -3.074629
C      1.382422   -0.364300   -2.300154
N      0.171711   -2.001508   -0.127706
C     -0.489964   -0.938893    0.577613
O     -0.157112   -0.670556    1.763542
O     -1.491826   -0.204447   -0.074944
C     -2.140314    0.976461    0.414880
C     -3.113000    1.442697   -0.678779
C     -2.938149    0.666781    1.695374
C     -1.108153    2.090928    0.670609
H     -2.240261   -5.514682    1.971129
H     -1.483762   -4.511354    3.268766
H     -0.625955   -5.981930    2.633529
H      2.034948   -2.261064    0.841134
H      1.571380   -3.203534   -2.724786
H      0.275381   -4.363975   -2.203129
H     -1.134877   -2.637625   -1.646891
H     -1.749548   -1.161036   -3.397934
H     -1.358313    0.857530   -4.758263
H      0.772141    2.107423   -4.556404
H      2.524535    1.326831   -2.987059
H      2.154827   -0.690417   -1.614853
H     -2.560454    1.657097   -1.619254
H     -3.652860    2.363124   -0.367218
H     -3.860471    0.648738   -0.893303
H     -2.266200    0.415982    2.541064
H     -3.546460    1.546277    1.998374
H     -3.619764   -0.193560    1.523083
H     -1.617814    3.043879    0.930276
H     -0.431895    1.829427    1.509970
H     -0.489129    2.254578   -0.237854
