70

C      0.868419   -0.272151   -3.551564
C     -0.322678    0.054553   -2.640750
C     -0.590966    1.552374   -2.632678
O     -1.300546    2.029089   -3.559645
C     -0.097346    2.481073   -1.580123
C     -1.069061    3.483950   -1.013030
C      1.188088    2.449717   -1.180647
C      1.755620    3.348276   -0.154391
C      2.994446    3.157339    0.306363
C      3.601302    4.051869    1.350546
C      3.813482    3.315206    2.682384
C      2.516894    3.131608    3.487389
C      1.679363    1.998786    2.956644
C      0.384635    2.155876    2.668551
C     -0.188210   -0.570133   -1.223236
O     -0.026197   -1.971113   -1.350547
Si     0.692185   -2.721244    0.057728
C      0.272405   -4.539209   -0.097484
C     -0.090895   -2.159551    1.667821
C      2.594188   -2.510404    0.121642
C      3.142948   -2.400515   -1.308849
C      2.976933   -1.246733    0.917810
C      3.220750   -3.735668    0.814756
C     -1.423818   -0.249594   -0.411464
C     -2.605796   -0.833052   -0.650087
C     -3.826216   -0.529666    0.141174
C     -3.889523    0.713482    0.992862
C     -4.875611   -1.366408    0.136680
I     -4.966973   -3.207230   -0.916894
H      0.678140    0.117358   -4.573787
H      1.808880    0.175233   -3.181783
H      1.004740   -1.370498   -3.630301
H     -1.205281   -0.427230   -3.118674
H     -0.747455    4.514251   -1.277169
H     -1.125375    3.378120    0.091333
H     -2.092471    3.327458   -1.416616
H      1.862547    1.737850   -1.630183
H      1.168624    4.169726    0.237090
H      3.583091    2.317252   -0.050735
H      2.993335    4.968313    1.511954
H      4.589667    4.386143    0.970529
H      4.313698    2.335645    2.512017
H      4.506929    3.927686    3.299252
H      2.784148    2.886430    4.538979
H      1.945154    4.087338    3.508188
H      2.126669    1.014453    2.855218
H     -0.196801    1.310233    2.324218
H     -0.104498    3.119270    2.772746
H      0.692704   -0.115383   -0.731485
H      0.774630   -4.959484   -0.992521
H      0.604183   -5.084243    0.809226
H     -0.826375   -4.651145   -0.206727
H      0.115935   -1.083757    1.840965
H     -1.187337   -2.326504    1.628451
H      0.334894   -2.745459    2.507026
H      2.818840   -3.268252   -1.922016
H      2.783836   -1.469807   -1.790320
H      4.252902   -2.372361   -1.304446
H      2.553284   -0.329529    0.463078
H      2.619212   -1.320817    1.967199
H      4.080435   -1.122132    0.941691
H      4.319060   -3.601111    0.929875
H      2.781309   -3.884503    1.826348
H      3.058335   -4.659198    0.216419
H     -1.315658    0.461111    0.395586
H     -2.662059   -1.567095   -1.444029
H     -4.936287    0.985074    1.251380
H     -3.319928    0.548372    1.931702
H     -3.452200    1.574786    0.446128
H     -5.754831   -1.138520    0.727177
