68

C     -0.389260    5.601858   -0.130516
O     -0.744870    4.506957    0.684029
C     -1.612727    3.623320   -0.014264
O     -0.934363    2.652683   -0.805887
C      0.390958    2.352062   -0.392570
C      1.066676    1.578028   -1.534641
O      0.373358    0.372801   -1.784472
C      1.035020   -0.350937   -2.799426
C      0.188554   -1.526001   -3.201446
C     -1.066419   -1.310434   -3.799280
C     -1.862394   -2.394839   -4.176375
C     -1.415953   -3.701382   -3.956975
C     -0.171079   -3.925206   -3.359296
C      0.633784   -2.842518   -2.989499
C      0.477261    1.552596    0.953131
O      0.990170    2.391099    1.979963
C      2.402992    2.326213    2.055472
C      2.867737    1.030581    2.673371
C      3.915432    0.304696    2.086488
C      4.338244   -0.906890    2.645467
C      3.702916   -1.408323    3.784281
C      2.659247   -0.691113    4.376491
C      2.247584    0.529728    3.832500
C     -0.858858    0.957088    1.448272
O     -1.456055    0.186691    0.420648
C     -2.308794   -0.811436    0.952491
C     -1.523244   -2.051806    1.282475
C     -1.311063   -2.435095    2.618387
C     -0.560461   -3.581466    2.909402
C     -0.017282   -4.345940    1.873398
C     -0.216169   -3.962262    0.540947
C     -0.968010   -2.821349    0.247169
C     -1.795849    2.043006    1.933397
O     -1.947428    2.202576    3.135609
C     -2.551951    2.927053    0.979572
O     -3.493376    2.150526    0.283646
H     -1.245806    6.302769   -0.230128
H     -0.040719    5.276242   -1.135661
H      0.448828    6.144590    0.359849
H     -2.288979    4.190214   -0.699790
H      0.998465    3.280162   -0.306467
H      1.054055    2.221678   -2.443419
H      2.127862    1.381910   -1.258231
H      1.198468    0.274354   -3.707047
H      2.025835   -0.701159   -2.434701
H     -1.429787   -0.302199   -3.962520
H     -2.830015   -2.226205   -4.635793
H     -2.037949   -4.536785   -4.244940
H      0.170223   -4.938442   -3.186790
H      1.593591   -3.033136   -2.537842
H      1.131309    0.659220    0.797458
H      2.747113    3.152366    2.709825
H      2.867773    2.501212    1.059536
H      4.409157    0.679269    1.200086
H      5.152507   -1.460389    2.192232
H      4.017934   -2.355166    4.207987
H      2.170706   -1.083369    5.258897
H      1.435429    1.071982    4.301998
H     -0.585971    0.316110    2.323451
H     -3.058975   -1.071024    0.172758
H     -2.902258   -0.455411    1.829408
H     -1.727483   -1.854908    3.434704
H     -0.410904   -3.877989    3.939617
H      0.555605   -5.236055    2.097032
H      0.203494   -4.552269   -0.263155
H     -1.122721   -2.535616   -0.785929
H     -3.075912    3.718646    1.573660
H     -4.303186    2.710544    0.162756
