35

C      1.047701    0.289366   -0.703156
O      2.381990   -0.000615   -0.470292
C      2.727912    1.068388    0.426778
C      3.575035    0.506486    1.576462
C      3.530532    2.135154   -0.330436
O      1.533318    1.665742    0.958385
C      0.600475    0.695615    0.631121
C     -0.884902    0.978228    0.423491
C     -1.666654    1.235528    1.729141
O     -1.430518    0.245598    2.696849
C     -1.312731   -0.308264   -0.389713
O     -2.381070    0.012090   -1.286936
C     -1.960873    0.571900   -2.515586
O     -1.746821   -1.303711    0.529926
C     -2.125034   -2.508840   -0.107527
C      0.024977   -0.724067   -1.031850
O      0.194761   -1.661127   -1.796264
H      0.972679    1.111377   -1.457543
H      4.511653    0.056471    1.183103
H      3.834890    1.312569    2.295580
H      3.012073   -0.280976    2.120208
H      3.821828    2.959554    0.355147
H      4.447970    1.689200   -0.770702
H      2.919800    2.565198   -1.151871
H      0.697746   -0.148518    1.365105
H     -0.993009    1.892255   -0.202131
H     -1.400677    2.242838    2.126484
H     -2.752645    1.253957    1.498088
H     -0.665981    0.556023    3.248836
H     -2.849021    0.992566   -3.029589
H     -1.539936   -0.213367   -3.178034
H     -1.236178    1.401280   -2.384144
H     -1.233927   -3.148609   -0.275541
H     -2.802928   -3.064738    0.571905
H     -2.672747   -2.356510   -1.062833
