70

C      1.660095    1.871695   -4.660401
C      0.692449    0.942476   -3.922011
C      1.316304   -0.442749   -3.749807
O      0.418192    1.468912   -2.633862
C     -0.819820    2.164509   -2.610675
O     -1.919910    1.266867   -2.649366
C     -1.934266    0.315530   -1.583440
C     -3.392385   -0.147504   -1.410039
O     -4.183693    0.902753   -0.857798
C     -5.528559    0.738082   -0.503258
C     -6.266804    1.874852    0.126864
O     -6.136239   -0.336198   -0.768972
C     -1.276858    0.826297   -0.247066
S     -1.874646   -0.031887    1.269199
C     -0.663669   -1.404705    1.197099
C      0.628732   -1.018304    1.943192
O      0.521305   -1.416068    3.296126
C      1.520878   -0.809906    4.104299
O      1.120188    0.480661    4.460443
C      2.182486    1.338151    4.092480
C      2.950791    1.764703    5.355210
C      1.605593    2.581648    3.407656
O      3.058381    0.684646    3.194796
C      2.899239   -0.678211    3.461565
C      3.104085   -1.526957    2.189510
O      3.492738   -2.812878    2.562442
C      2.712488   -3.708270    1.808008
C      3.607722   -4.400849    0.771204
C      2.111357   -4.745314    2.758593
O      1.660808   -3.044216    1.144123
C      1.868926   -1.675411    1.315922
C     -1.419427    2.343855   -0.105299
C     -0.903825    2.990490   -1.355966
O     -0.555427    4.166179   -1.353157
H      1.212616    2.882121   -4.764915
H      2.618603    1.957706   -4.098147
H      1.867489    1.477071   -5.681987
H     -0.224301    0.815622   -4.547746
H      1.637415   -0.851547   -4.731887
H      0.567111   -1.140344   -3.315294
H      2.195420   -0.400572   -3.069215
H     -0.906088    2.861571   -3.476069
H     -1.361294   -0.578688   -1.920420
H     -3.811955   -0.438641   -2.401023
H     -3.434650   -1.045933   -0.754549
H     -5.550601    2.569989    0.617095
H     -6.843590    2.420716   -0.646860
H     -6.968221    1.483989    0.892610
H     -0.179058    0.641277   -0.313343
H     -0.459430   -1.667958    0.137085
H     -1.118462   -2.302009    1.667748
H      0.754254    0.082873    1.863507
H      1.614553   -1.417720    5.030385
H      2.252691    2.195208    6.103788
H      3.729663    2.520368    5.102465
H      3.455077    0.889522    5.810973
H      1.039884    2.299546    2.495264
H      2.419808    3.275056    3.098822
H      0.918812    3.114029    4.097743
H      3.679637   -0.972657    4.200246
H      3.932587   -1.079955    1.594536
H      3.019195   -5.122837    0.162086
H      4.047302   -3.646106    0.083339
H      4.437090   -4.947176    1.271212
H      1.514703   -5.490407    2.192920
H      2.918841   -5.264931    3.319809
H      1.436175   -4.246985    3.492063
H      2.052657   -1.215475    0.321419
H     -0.832118    2.691230    0.767001
H     -2.481254    2.627389    0.044035
