58

C     -2.171103    3.528107   -1.940186
O     -1.442526    2.792770   -2.915070
C     -0.066494    2.596423   -2.791452
C      0.803393    3.500669   -3.430824
O      0.314916    4.511295   -4.259874
C      2.180115    3.409615   -3.222797
C      2.696949    2.449373   -2.356622
C      1.848023    1.535100   -1.730045
C      0.461966    1.543016   -1.996356
C     -0.384536    0.498031   -1.333672
C      0.144090   -0.219468   -0.235963
C     -0.745095   -0.944485    0.602053
C     -2.005230   -1.303593    0.095993
C     -2.449628   -0.774235   -1.117870
C     -1.666561    0.151867   -1.805201
N     -2.812931   -2.242426    0.821352
C     -2.234353   -3.031140    1.917306
C     -1.560781   -4.284474    1.340588
C     -3.353455   -3.439509    2.890171
C     -1.200064   -2.205233    2.656663
C     -0.471007   -1.257674    2.038408
C      0.328449   -0.308401    2.897159
C      1.632341   -0.336129   -0.162018
C      2.238344   -1.391637    0.418504
C      3.707692   -1.598668    0.487905
C      4.362850   -2.662562    1.129349
C      3.716012   -3.683572    1.983678
C      2.676596   -3.323884    3.001819
O      4.092683   -4.882866    1.900375
C      5.752301   -2.669035    0.918866
C      6.211871   -1.614421    0.148735
S      4.890208   -0.686392   -0.296355
O      2.399521    0.615968   -0.834643
H     -3.253913    3.463817   -2.164397
H     -1.861858    4.592925   -1.962295
H     -1.988309    3.110675   -0.928385
H     -0.675013    4.632922   -4.442030
H      2.848245    4.109501   -3.708517
H      3.762637    2.414618   -2.168449
H     -3.415425   -1.057030   -1.517097
H     -2.049983    0.535465   -2.739167
H     -3.747795   -2.511343    0.435787
H     -0.750853   -4.001429    0.633816
H     -2.302126   -4.903465    0.790723
H     -1.117723   -4.899090    2.153500
H     -4.112362   -4.062231    2.370646
H     -3.860999   -2.536410    3.291070
H     -2.943550   -4.022293    3.740836
H     -1.066067   -2.374660    3.720609
H      1.200140    0.113243    2.368038
H     -0.324599    0.535169    3.203784
H      0.703476   -0.812351    3.813349
H      1.624622   -2.187547    0.808909
H      2.603362   -2.222021    3.118038
H      2.960477   -3.750488    3.989092
H      1.691219   -3.738462    2.699667
H      6.416133   -3.411108    1.346163
H      7.242076   -1.426249   -0.117197
