16

C     -2.910248   -0.323050   -0.593859
C     -2.105806    0.939007   -0.617771
O     -2.686850    2.037286   -0.828008
C     -0.648954    0.918345   -0.400019
C      0.134957   -0.209089   -0.156487
C      1.493656    0.084028    0.011227
C      1.771147    1.440138   -0.101253
N      3.066591    2.033588    0.023108
O      4.168488    1.249765    0.274758
O      3.206691    3.267765   -0.095887
S      0.345335    2.280042   -0.407147
H     -2.547731   -1.013686   -1.383779
H     -2.811169   -0.812013    0.397841
H     -3.983899   -0.104943   -0.777303
H     -0.257374   -1.215864   -0.100533
H      2.243548   -0.670851    0.207554
