19

C      1.290282   -3.557205   -0.916541
N      0.423480   -2.414341   -1.179210
C     -0.950083   -2.485470   -1.570566
O     -1.504638   -3.518504   -2.030599
C     -1.606458   -1.209198   -1.329094
O     -2.807815   -0.914540   -1.563646
C     -0.591166   -0.356236   -0.735425
C     -0.673378    0.953583   -0.267441
C      0.476173    1.523752    0.304625
C      1.669862    0.778842    0.403261
C      1.727647   -0.543468   -0.071143
C      0.578159   -1.093232   -0.645135
H      1.140513   -3.906784    0.126243
H      1.053223   -4.384224   -1.618229
H      2.352125   -3.270140   -1.061991
H     -1.596337    1.514444   -0.337089
H      0.443857    2.539545    0.676566
H      2.547704    1.227799    0.849453
H      2.643240   -1.113767    0.008036
