14

C      0.369925    2.657827    0.616080
C     -0.448837    1.777512   -0.272627
O     -0.873036    2.222388   -1.372966
C     -0.759802    0.398538    0.131791
C     -1.502438   -0.512206   -0.594537
C     -1.530747   -1.659887    0.168258
C     -0.806167   -1.379930    1.309219
O     -0.359722   -0.145917    1.258268
H      1.368301    2.200257    0.778342
H      0.505771    3.659596    0.155709
H     -0.140574    2.779861    1.594320
H     -1.966977   -0.361874   -1.560273
H     -2.021744   -2.591842   -0.077707
H     -0.624802   -2.061989    2.129004
