36

C      0.813948   -0.006391    0.546263
C      0.554320   -1.059870   -0.540821
C     -0.716030   -1.881823   -0.230304
C     -1.644715   -1.217243    0.808190
C     -1.774605    0.304074    0.577271
O     -2.631417    0.810722    1.584068
C     -3.628758    1.519530    0.924328
C     -3.629239    1.018230   -0.482451
O     -2.370279    0.467233   -0.699914
C     -0.350649    1.039233    0.633184
C     -0.271598    2.096076   -0.512995
C     -0.140162    1.778679    1.987328
C      1.246884    2.446407    2.137012
C      2.396968    1.691921    1.500126
O      3.537818    1.995060    1.813745
C      2.196151    0.646729    0.428580
H      0.856496   -0.571611    1.507265
H      0.451072   -0.567606   -1.530862
H      1.422313   -1.751807   -0.610003
H     -0.423410   -2.883051    0.154380
H     -1.279275   -2.046688   -1.174756
H     -2.648818   -1.691799    0.747501
H     -1.263203   -1.409476    1.834947
H     -4.610288    1.340732    1.412538
H     -3.390528    2.605282    0.954720
H     -3.812532    1.845281   -1.200958
H     -4.401426    0.229725   -0.616467
H     -1.124237    2.804381   -0.438318
H     -0.307139    1.614474   -1.511606
H      0.652762    2.705240   -0.480168
H     -0.272232    1.055184    2.822906
H     -0.914411    2.566143    2.119913
H      1.215274    3.466401    1.697614
H      1.456251    2.571238    3.221704
H      2.974086   -0.139996    0.545234
H      2.338665    1.104824   -0.572963
