36

C      1.170310    0.151740   -0.749221
C      1.202684   -1.376377   -0.598263
C      0.015514   -1.879075    0.252466
C     -1.127439   -0.850661    0.388904
C     -1.414813   -0.125980   -0.944082
O     -1.839439   -1.122747   -1.859941
C     -3.176012   -0.858243   -2.141858
C     -3.438194    0.530366   -1.658787
O     -2.462722    0.795417   -0.704556
C     -0.117738    0.635046   -1.500567
C     -0.011576    0.411661   -3.041904
C     -0.196430    2.168075   -1.239000
C      1.059662    2.953203   -1.683938
C      2.374493    2.221166   -1.502538
O      3.411799    2.863647   -1.557351
C      2.461358    0.721213   -1.349050
H      1.147530    0.555205    0.290733
H      2.152250   -1.686729   -0.109406
H      1.179213   -1.858167   -1.598510
H      0.375053   -2.137588    1.272254
H     -0.382871   -2.813430   -0.199955
H     -0.873938   -0.105012    1.174066
H     -2.044609   -1.376953    0.733761
H     -3.358892   -0.942140   -3.234276
H     -3.815377   -1.588331   -1.599496
H     -3.346017    1.260586   -2.492343
H     -4.448365    0.611170   -1.204095
H      0.814217    0.983405   -3.508568
H     -0.948914    0.739135   -3.540324
H      0.155889   -0.657359   -3.285989
H     -1.075027    2.603225   -1.764217
H     -0.352855    2.345427   -0.151269
H      1.095812    3.904040   -1.108980
H      0.961759    3.230504   -2.755376
H      2.685130    0.256342   -2.332449
H      3.308184    0.479092   -0.669352
