46

C     -1.364915    0.018332   -0.722263
C     -1.353724    0.873504    0.575583
C     -0.351782    2.057869    0.595426
C      1.173615    1.711071    0.553063
C      1.910137    3.045255    0.265173
O      1.484292    1.237055    1.877143
C      2.747834    1.011849    2.445702
C      2.830538    0.390536    3.797896
O      3.811663    1.305723    1.840368
C      1.508837    0.583870   -0.499141
C      2.994835    0.325968   -0.813988
C      2.953056   -0.320600   -2.154627
O      3.944001   -0.781622   -2.699930
C      1.595826   -0.341717   -2.774229
C      1.047449   -1.779120   -2.707430
C      0.852628    0.702917   -1.907062
C     -0.701764    0.699177   -1.936651
O     -1.278915    0.068340   -3.064575
C     -2.491772   -0.490331   -2.707204
O     -3.279333   -1.006235   -3.543463
C     -2.765297   -0.371519   -1.246933
C     -3.285390   -1.679480   -0.642594
H     -0.830288   -0.933508   -0.518569
H     -1.143286    0.210568    1.442808
H     -2.365716    1.298956    0.748015
H     -0.619369    2.792141   -0.191245
H     -0.542192    2.615318    1.540186
H      1.614739    3.811893    1.013664
H      3.009726    2.965817    0.314075
H      1.646095    3.427938   -0.743123
H      3.123870   -0.675123    3.697894
H      1.845212    0.449974    4.306113
H      3.584824    0.923260    4.414338
H      1.171636   -0.365070   -0.033077
H      3.593349    1.252122   -0.904402
H      3.451709   -0.366684   -0.074969
H      1.645701   -0.001987   -3.832210
H      1.767009   -2.477791   -3.185762
H      0.097968   -1.880003   -3.265854
H      0.895312   -2.108198   -1.658758
H      1.154673    1.695355   -2.315869
H     -1.053709    1.751142   -1.994120
H     -3.500749    0.446950   -1.087049
H     -3.373195   -1.574195    0.459402
H     -4.290265   -1.912764   -1.054133
H     -2.599993   -2.524199   -0.871360
