29

C      0.718065    2.155744    2.679769
O      0.069555    2.196837    1.412511
C     -0.007770    1.116857    0.516994
C      0.567807   -0.131788    0.809973
C      0.478871   -1.197614   -0.099036
C      1.085756   -2.524581    0.202735
C      1.818626   -2.790997    1.483919
O      0.988782   -3.462757   -0.634763
C     -0.197962   -0.995173   -1.312168
C     -0.782202    0.247522   -1.626525
O     -1.456873    0.438512   -2.843178
C     -1.622402   -0.551769   -3.853352
C     -0.683298    1.313715   -0.697357
O     -1.231283    2.593149   -0.914076
C     -1.954104    3.025138   -2.061566
H      1.797044    1.927471    2.549670
H      0.239686    1.392523    3.329289
H      0.621942    3.147071    3.167967
H      1.084630   -0.269685    1.747752
H      2.689229   -2.107574    1.569818
H      2.191017   -3.837359    1.509815
H      1.136747   -2.640852    2.346990
H     -0.268684   -1.813497   -2.014968
H     -2.194813   -0.114864   -4.696992
H     -0.631773   -0.882116   -4.231039
H     -2.189894   -1.417342   -3.451035
H     -1.314066    2.960795   -2.966484
H     -2.248017    4.085393   -1.921157
H     -2.879084    2.423206   -2.183039
