62

O      0.342506    0.395962   -4.006750
C      1.495974    0.893087   -3.899866
C      1.636451    2.214745   -3.189005
C      1.888430    2.026673   -1.685610
C      0.598524    1.701622   -0.922156
N      0.902235    1.486005    0.510440
C      1.299781    0.085009    0.815070
C      0.237010   -0.729933    1.590299
C     -1.202360   -0.339902    1.167784
C     -2.338134   -1.241696    1.783175
O     -1.936529   -2.581299    1.571156
C     -3.620867   -0.956727    0.973282
C     -3.840604   -1.609064   -0.259377
C     -4.965183   -1.314103   -1.033851
C     -5.880108   -0.351178   -0.604246
C     -5.667981    0.323201    0.598753
C     -4.544148    0.033885    1.377815
C     -2.615270   -1.088263    3.302257
C     -3.665169   -1.849930    3.870554
C     -3.957469   -1.777414    5.234360
C     -3.211679   -0.946056    6.067008
C     -2.178389   -0.177959    5.533589
C     -1.882074   -0.241426    4.168328
C     -1.461676    1.188496    1.265563
C     -0.159965    1.996804    1.399601
C      2.663759    0.155181   -4.456119
C      3.989575    0.512677   -4.133719
C      5.067393   -0.198958   -4.670070
C      4.839869   -1.273973   -5.530776
C      3.533274   -1.641780   -5.856818
C      2.451686   -0.935645   -5.322292
H      2.462604    2.805305   -3.640627
H      0.714914    2.819748   -3.344738
H      2.644934    1.229431   -1.519915
H      2.303942    2.973795   -1.273790
H     -0.096826    2.560585   -1.056775
H      0.098607    0.811559   -1.362116
H      2.230595    0.112732    1.421238
H      1.563023   -0.471750   -0.113646
H      0.417285   -1.807622    1.386082
H      0.405128   -0.590235    2.673525
H     -1.215099   -0.568750    0.076467
H     -2.706339   -3.185933    1.733501
H     -3.136772   -2.343203   -0.630081
H     -5.121267   -1.825530   -1.974603
H     -6.748360   -0.122332   -1.208892
H     -6.369723    1.080534    0.925401
H     -4.398524    0.588609    2.294986
H     -4.273729   -2.499767    3.252352
H     -4.766565   -2.368763    5.644436
H     -3.438210   -0.891267    7.124553
H     -1.604729    0.473647    6.179826
H     -1.093488    0.398427    3.819698
H     -1.998662    1.521186    0.349718
H     -2.125781    1.451426    2.112828
H      0.197354    1.955522    2.452256
H     -0.359661    3.069674    1.186067
H      4.203709    1.325908   -3.456382
H      6.081759    0.080062   -4.412958
H      5.676721   -1.819168   -5.946820
H      3.357545   -2.477238   -6.523713
H      1.449417   -1.240211   -5.594427
