27

C     -1.726369    1.331568   -0.604322
C     -0.624714    0.512196    0.100767
C     -0.251141   -0.737839   -0.746667
C     -1.401779   -1.747592   -0.850111
C     -1.999530   -2.025286    0.496179
O     -2.691230   -3.064050    0.665474
C     -1.813652   -1.088877    1.616507
C     -1.137662    0.065526    1.477027
C     -0.927892    0.908211    2.718158
C     -0.162564    2.205120    2.449936
C      1.049173    1.952209    1.558812
C      0.614378    1.393345    0.232210
O      1.273472    1.666258   -0.761376
H     -2.682776    0.769166   -0.646354
H     -1.422783    1.586818   -1.642528
H     -1.922218    2.278893   -0.059137
H      0.050583   -0.438153   -1.774652
H      0.622380   -1.247909   -0.280830
H     -1.014374   -2.693841   -1.285863
H     -2.191620   -1.361669   -1.528411
H     -2.203040   -1.372392    2.587998
H     -1.913474    1.162434    3.165653
H     -0.358174    0.308688    3.462084
H      0.175619    2.636513    3.416853
H     -0.834527    2.948823    1.969067
H      1.585177    2.914041    1.404318
H      1.745703    1.238257    2.048957
