26

C      1.752331   -1.678759   -0.998681
O      0.385727   -1.555048   -1.372542
C     -0.656955   -2.066894   -0.594841
O     -0.417574   -2.666279    0.488896
C     -2.070118   -1.878967   -1.043420
C     -2.490068   -0.447544   -0.853365
O     -2.071453    0.405961   -1.621917
C     -3.434809   -0.050557    0.253679
C     -2.810374    0.983154    1.198050
C     -1.668522    0.396157    1.984571
C     -0.392077    0.687421    1.698013
C      0.729743    0.095190    2.493188
H      2.028729   -2.751247   -0.916610
H      1.928573   -1.170494   -0.027733
H      2.386698   -1.201818   -1.773560
H     -2.155704   -2.150275   -2.117260
H     -2.737062   -2.562341   -0.474694
H     -4.346634    0.388634   -0.204933
H     -3.754812   -0.939095    0.840303
H     -2.487188    1.880235    0.624560
H     -3.586506    1.320187    1.917835
H     -1.896560   -0.305785    2.782431
H     -0.154598    1.365312    0.882733
H      0.703324   -1.012307    2.423636
H      1.701435    0.456822    2.096802
H      0.640842    0.399611    3.557342
