26

C      3.714278   -1.500808    0.018577
O      3.398257   -0.220803   -0.514832
C      2.573893   -0.053212   -1.631493
O      2.097840   -1.053670   -2.234754
C      2.243662    1.327116   -2.104538
C      1.433426    2.054210   -1.067088
O      1.974350    2.435706   -0.039594
C     -0.043885    2.285033   -1.256724
C     -0.854973    1.006377   -1.018780
C     -0.726733    0.533569    0.405918
C     -0.145069   -0.634414    0.711977
C      0.011990   -1.066772    2.136216
H      4.377450   -1.375100    0.898767
H      4.240504   -2.111835   -0.745012
H      2.785792   -2.018742    0.339519
H      3.183659    1.885467   -2.300152
H      1.678902    1.270675   -3.060637
H     -0.395144    3.083294   -0.565880
H     -0.226587    2.644159   -2.292262
H     -1.926324    1.221718   -1.217479
H     -0.537749    0.220452   -1.739337
H     -1.092123    1.179159    1.200404
H      0.229104   -1.283803   -0.073986
H      0.627378   -0.326734    2.690198
H      0.518682   -2.053765    2.174013
H     -0.984621   -1.155065    2.617944
