27

C     -1.546752   -0.576084    3.491974
C     -1.119785    0.758046    2.937117
C     -1.549972    2.029748    3.628974
C     -0.357335    0.783344    1.823798
C      0.122365    2.062499    1.182369
C      0.917247    1.775737   -0.063013
O      2.175497    1.826983    0.011030
C      0.272929    1.411621   -1.356061
C      1.059603    1.270922   -2.516852
C      0.472082    0.927424   -3.738151
C     -0.905310    0.717807   -3.818937
C     -1.698393    0.850344   -2.678143
C     -1.117441    1.194211   -1.453589
H     -2.141727   -1.125335    2.731741
H     -2.168913   -0.461663    4.403883
H     -0.650639   -1.177093    3.755243
H     -2.160592    2.648712    2.938688
H     -0.657898    2.606694    3.951238
H     -2.162661    1.816430    4.529361
H     -0.076920   -0.162184    1.363110
H     -0.738208    2.717769    0.931173
H      0.761461    2.613569    1.906035
H      2.130231    1.429447   -2.483571
H      1.086513    0.823819   -4.623229
H     -1.358003    0.451408   -4.765298
H     -2.766160    0.684465   -2.741664
H     -1.762483    1.279101   -0.590261
