29

C      0.440780    1.707643    2.863230
O      0.135649    2.085389    1.526586
C     -1.177278    2.219351    1.063876
O     -2.151938    2.078761    1.852226
C     -1.429646    2.550953   -0.374705
C     -0.608784    1.666707   -1.273717
O      0.540180    1.985543   -1.541615
C     -1.162809    0.368735   -1.808306
C     -1.396737   -0.662146   -0.695372
C     -0.115814   -1.035920    0.016028
C     -0.082603   -1.820256    1.113493
C     -1.344675   -2.388891    1.716548
C      1.250438   -2.120645    1.748058
H      0.039702    2.461982    3.572668
H      0.001717    0.711852    3.085752
H      1.541940    1.649098    2.982964
H     -1.171108    3.616091   -0.555333
H     -2.508627    2.419696   -0.608449
H     -0.469831   -0.058161   -2.566802
H     -2.127143    0.574083   -2.320480
H     -1.836730   -1.577514   -1.145858
H     -2.131539   -0.252793    0.029861
H      0.822602   -0.644690   -0.370895
H     -2.003093   -1.564415    2.061959
H     -1.882911   -3.001628    0.963197
H     -1.122576   -3.037310    2.589332
H      1.742595   -1.173074    2.053963
H      1.141956   -2.761217    2.647807
H      1.901720   -2.649010    1.020011
