54

C     -3.501029   -1.935793   -0.814126
C     -2.563138   -0.796243   -1.109614
C     -2.413152    0.132670    0.102869
C     -1.228878    1.092384   -0.084208
C     -1.061810    2.062185    1.098014
C     -2.140560    3.159553    1.185321
C     -2.111199    4.145991   -0.001070
C     -3.262381    3.904241   -0.987709
C     -3.096109    4.765647   -2.198592
O     -3.460288    5.974563   -2.165932
O     -2.490075    4.231696   -3.340188
C     -2.237228    5.003929   -4.507125
C     -3.170576   -3.020497   -0.099254
C     -1.838014   -3.236905    0.499765
C     -1.561228   -4.361809    1.168394
C     -0.250092   -4.643305    1.796503
O     -0.083505   -5.764504    2.347911
C      0.899094   -3.667013    1.789039
C      1.659282   -3.681762    0.453974
C      2.466463   -4.976335    0.262082
C      3.273116   -4.969553   -1.047575
C      2.406156   -5.282953   -2.268322
H     -4.501021   -1.881014   -1.230229
H     -2.979031   -0.206310   -1.953217
H     -1.580163   -1.191445   -1.446433
H     -2.251633   -0.459954    1.029829
H     -3.357618    0.703814    0.223973
H     -1.325171    1.651721   -1.038524
H     -0.298819    0.486714   -0.159276
H     -1.061711    1.483308    2.047853
H     -0.064876    2.548690    1.020857
H     -3.148784    2.712188    1.318686
H     -1.941168    3.736710    2.114973
H     -1.132529    4.093886   -0.531758
H     -2.208594    5.183192    0.392568
H     -4.231510    4.141157   -0.496730
H     -3.294732    2.840610   -1.302303
H     -1.753271    4.362130   -5.269927
H     -1.556782    5.847280   -4.263638
H     -3.190855    5.392476   -4.921878
H     -3.930605   -3.781698    0.038825
H     -1.081377   -2.476227    0.391934
H     -2.329375   -5.121910    1.261306
H      0.523352   -2.642075    1.992588
H      1.599957   -3.904416    2.618977
H      2.357415   -2.816812    0.444703
H      0.944058   -3.546327   -0.384421
H      1.787904   -5.855795    0.278883
H      3.177905   -5.083310    1.110867
H      3.769555   -3.983704   -1.191045
H      4.071452   -5.741762   -0.979160
H      3.041482   -5.294128   -3.178011
H      1.621285   -4.511442   -2.403457
H      1.926269   -6.279432   -2.158761
