17

O      0.490336   -1.347275    2.038975
C      0.327639   -0.496846    1.121267
C      1.378716    0.575865    0.980808
Br     0.651928    2.348381    1.293434
Br     2.290008    0.478380   -0.730278
C     -0.878718   -0.605501    0.245024
C     -1.134300    0.304533   -0.802741
C     -2.273978    0.170847   -1.601843
C     -3.175464   -0.868452   -1.371342
C     -2.939677   -1.777749   -0.340284
C     -1.802209   -1.649739    0.462270
H      2.160372    0.422126    1.755570
H     -0.464922    1.122695   -1.016804
H     -2.457935    0.875963   -2.402287
H     -4.056660   -0.969100   -1.991720
H     -3.639287   -2.584134   -0.161559
H     -1.647990   -2.371754    1.254260
