21

C      3.328992    1.131162    1.828950
O      2.386017    0.815553    0.811781
C      2.077426   -0.499989    0.449607
O      2.644008   -1.464820    1.034890
C      1.083767   -0.749855   -0.620586
C      0.682736   -2.004251   -0.902440
C     -0.328098   -2.273140   -1.940962
O     -0.680060   -3.459380   -2.175904
C     -0.980507   -1.142258   -2.681008
C     -0.050623    0.072646   -2.727920
C      0.446884    0.434207   -1.321650
H      3.399654    2.233460    1.931022
H      4.328621    0.729891    1.558409
H      3.000920    0.700151    2.798522
H      1.108252   -2.850518   -0.376328
H     -1.926265   -0.870669   -2.164516
H     -1.223618   -1.458789   -3.718297
H     -0.594011    0.938506   -3.163864
H      0.820927   -0.152073   -3.382020
H     -0.405792    0.797838   -0.708309
H      1.180791    1.263148   -1.416888
