30

O     -0.939932   -2.087456   -2.315402
C     -0.741526   -1.124003   -1.526948
C     -0.186945   -1.398422   -0.153138
C      0.679406   -0.222404    0.323553
N     -0.043110    1.044036    0.136058
C     -0.205029    1.664714    1.412220
O     -0.851568    2.725425    1.619714
C      0.418220    0.852807    2.427735
C      0.936420   -0.263868    1.806994
C      1.612167   -1.239478    2.543335
C      1.739116   -1.064117    3.932322
C      1.196973    0.076119    4.559991
C      0.526242    1.051120    3.803250
C     -0.783792    1.326690   -1.062292
C     -1.135903    2.639475   -1.415064
C     -1.825517    2.884314   -2.605515
C     -2.159776    1.825748   -3.453401
C     -1.804863    0.516744   -3.115912
C     -1.115909    0.257887   -1.918819
H     -1.040805   -1.550616    0.542702
H      0.425399   -2.326096   -0.167865
H      1.641169   -0.192646   -0.233779
H      2.027492   -2.112263    2.056619
H      2.256298   -1.808843    4.523162
H      1.299117    0.201672    5.630036
H      0.108083    1.930563    4.275507
H     -0.856726    3.475599   -0.788978
H     -2.093198    3.897591   -2.876003
H     -2.691683    2.020368   -4.375755
H     -2.073096   -0.290547   -3.785769
