28

C     -3.273274    3.479265    2.076175
O     -1.875069    3.492971    1.807347
C     -1.163496    2.415196    1.259698
C     -1.781938    1.198478    0.915226
C     -1.028322    0.152154    0.374257
C      0.356633    0.298461    0.181437
N      1.150389   -0.752803   -0.395028
C      0.915979   -2.152955   -0.175770
O      0.124984   -2.539240    0.726919
C      1.684387   -3.169546   -0.962082
C      3.047061   -3.367277   -0.357890
C      4.280702   -2.833335   -1.023608
O      3.154170   -3.969767    0.699561
C      0.964343    1.519980    0.504683
C      0.211154    2.565242    1.046491
H     -3.841392    3.319654    1.135440
H     -3.569016    4.457191    2.508092
H     -3.513500    2.679712    2.808473
H     -2.844828    1.054184    1.052906
H     -1.534815   -0.758539    0.084112
H      2.003175   -0.483263   -0.936351
H      1.765828   -2.826623   -2.015566
H      1.139824   -4.138602   -0.971895
H      4.963994   -3.673278   -1.268237
H      4.798243   -2.131942   -0.336138
H      4.032660   -2.290519   -1.959616
H      2.026583    1.657990    0.345904
H      0.698098    3.498303    1.300497
