28

C     -0.180096   -4.577481   -0.839513
O     -1.134241   -3.524197   -0.752150
C     -0.805445   -2.163259   -0.665055
C      0.526073   -1.706457   -0.660364
C      0.802449   -0.338830   -0.569209
C     -0.245044    0.593349   -0.467073
N      0.012185    2.006086   -0.400004
C      1.154062    2.584597    0.251172
O      1.855266    1.901119    1.045556
C      1.525560    4.014724   -0.015344
C      2.340396    4.192617   -1.274920
C      2.765330    3.035060   -2.137120
O      2.664788    5.323270   -1.604367
C     -1.569949    0.135969   -0.495644
C     -1.846020   -1.231230   -0.585359
H      0.435782   -4.459678   -1.756048
H     -0.715020   -5.547693   -0.893356
H      0.470181   -4.579280    0.060704
H      1.353734   -2.398387   -0.735903
H      1.833049   -0.011794   -0.605489
H     -0.700696    2.655366   -0.803393
H      0.598103    4.620778   -0.097613
H      2.106863    4.410496    0.845412
H      3.384246    3.388041   -2.989582
H      3.366362    2.319486   -1.537951
H      1.870330    2.518158   -2.541876
H     -2.390090    0.840675   -0.438000
H     -2.874764   -1.568600   -0.595367
