57

C     -2.350905    2.146930    0.534769
C     -2.968771    1.593643    1.816592
C     -3.837325    0.350824    1.557431
C     -3.021728   -0.936081    1.329321
C     -2.531385   -1.552539    2.646994
C     -1.728852   -2.800395    2.387382
O     -2.336997   -3.903281    2.314889
C     -0.262923   -2.793184    2.190924
C      0.455880   -1.677872    1.992779
C      1.927926   -1.709564    1.803451
C      2.665640   -0.657874    1.449782
C      2.166159    0.719381    1.091365
C      1.578515    0.730889   -0.325429
C      1.205602    2.153285   -0.757785
C      0.532997    2.154294   -2.140204
C     -0.180553    3.475303   -2.472123
C      0.760611    4.687265   -2.579044
C      1.062746    5.292115   -1.240497
O      2.261195    5.486867   -0.896573
O      0.012858    5.658348   -0.394304
C      0.227716    6.189332    0.908330
C      4.049224   -1.068531    1.346829
O      4.999782   -0.307108    1.022583
C      4.213702   -2.495675    1.705922
C      2.772375   -2.945312    1.982395
H     -3.143088    2.391647   -0.204335
H     -1.792471    3.078719    0.769786
H     -1.644865    1.415552    0.089147
H     -2.165199    1.372851    2.549020
H     -3.613111    2.385966    2.255624
H     -4.481520    0.533803    0.670243
H     -4.525582    0.204884    2.418539
H     -3.679591   -1.675945    0.820789
H     -2.164829   -0.742885    0.649555
H     -1.931979   -0.828708    3.233506
H     -3.410274   -1.818738    3.273034
H      0.229256   -3.758120    2.184344
H     -0.045282   -0.721540    1.949417
H      1.405174    1.057989    1.827617
H      3.011338    1.439553    1.147426
H      2.324280    0.318377   -1.041114
H      0.673191    0.085437   -0.350043
H      2.133374    2.759779   -0.806123
H      0.528477    2.605521   -0.003508
H      1.291389    1.928091   -2.922574
H     -0.231155    1.348631   -2.177233
H     -0.676310    3.344015   -3.458407
H     -0.991782    3.665760   -1.735784
H      1.701619    4.398423   -3.097992
H      0.268670    5.468129   -3.196598
H      0.795291    7.143596    0.841021
H      0.788550    5.458123    1.528427
H     -0.752601    6.387381    1.385293
H      4.662546   -3.063539    0.861463
H      4.841096   -2.590389    2.617695
H      2.467640   -3.725184    1.252479
H      2.671954   -3.330308    3.018404
