27

C     -1.896124   -1.969962   -2.033250
C     -2.900299   -0.944031   -1.598318
O     -3.268377   -0.092969   -2.393481
C     -3.436845   -0.932871   -0.193609
C     -2.345761   -0.576329    0.767381
O     -1.895549   -1.453894    1.552973
N     -1.785578    0.743485    0.758261
C     -0.498164    1.045029    1.377832
C      0.610532    0.387374    0.601443
C      1.292432   -0.722609    1.127641
C      2.289687   -1.355439    0.378878
C      2.608474   -0.889282   -0.899564
C      1.930045    0.210385   -1.432001
C      0.932956    0.846606   -0.686352
H     -1.670099   -2.678421   -1.208497
H     -2.297312   -2.542375   -2.895520
H     -0.955259   -1.463582   -2.335410
H     -3.853779   -1.934293    0.048894
H     -4.259424   -0.191010   -0.100639
H     -2.258151    1.491114    0.201484
H     -0.505229    0.716409    2.439942
H     -0.337250    2.144931    1.375445
H      1.049036   -1.101607    2.112393
H      2.812574   -2.210115    0.788221
H      3.378845   -1.381898   -1.478583
H      2.173869    0.567358   -2.424228
H      0.406315    1.691048   -1.113698
