35

C     -4.933880   -2.786255   -2.106341
O     -3.993621   -1.728360   -1.965701
C     -2.622842   -1.955308   -1.812615
O     -2.166936   -3.132347   -1.784151
C     -1.695240   -0.783823   -1.657396
C     -1.140136   -0.719977   -0.220095
C      0.012772    0.314558   -0.131174
C      0.435422    0.680240    1.346449
C      0.810511   -0.571912    2.173056
C      1.644231    1.648030    1.332500
C     -0.723313    1.410910    2.069817
C      1.210284   -0.122002   -1.038182
C      0.838158   -1.056381   -2.208863
C     -0.577421   -0.850950   -2.668413
O     -0.825343   -0.759963   -3.861555
H     -4.698770   -3.386021   -3.011059
H     -4.910264   -3.437806   -1.207209
H     -5.951445   -2.357778   -2.213297
H     -2.267308    0.151504   -1.847916
H     -0.762695   -1.720686    0.086521
H     -1.977867   -0.450783    0.453345
H     -0.381372    1.254321   -0.583399
H      1.141396   -0.277228    3.192575
H      1.637545   -1.141734    1.704199
H     -0.060479   -1.249937    2.291255
H      2.559444    1.154520    0.944654
H      1.879955    2.004628    2.358747
H      1.425929    2.535207    0.699612
H     -1.580709    0.735778    2.265429
H     -0.391297    1.794274    3.059182
H     -1.080774    2.275666    1.470419
H      1.685275    0.792898   -1.456369
H      1.991542   -0.640956   -0.447617
H      0.938932   -2.113158   -1.878969
H      1.547464   -0.899978   -3.050994
