123

C      2.637648    0.070209    4.834264
C      1.304657   -0.221276    4.156270
C      0.367594    0.992708    4.224403
C     -1.010044    0.708208    3.605695
C     -0.955495    0.614249    2.072282
C     -2.363011    0.558558    1.455870
O     -2.964938   -0.678927    1.788536
Si    -4.653380   -0.524000    2.184693
C     -5.641710   -0.154710    0.644378
C     -6.505548   -1.126666    0.109349
C     -7.216497   -0.868590   -1.066917
C     -7.060784    0.354604   -1.725982
C     -6.200331    1.321888   -1.204791
C     -5.491425    1.069273   -0.026979
C     -4.890185    0.729885    3.541510
C     -4.301248    0.494978    4.792214
C     -4.449629    1.421281    5.830193
C     -5.183750    2.591384    5.621369
C     -5.781616    2.828353    4.381739
C     -5.642424    1.899433    3.345760
C     -5.192947   -2.156119    2.877244
C     -4.462019   -3.316595    2.588060
C     -4.873623   -4.549872    3.102654
C     -6.025430   -4.631395    3.892729
C     -6.763134   -3.477933    4.174220
C     -6.352561   -2.241991    3.661508
C     -2.246400    0.697784   -0.042678
C     -1.757912   -0.286240   -0.821361
C     -1.414456   -0.127720   -2.299922
C     -1.440939    1.295449   -2.766688
O     -2.460261    1.869268   -3.115428
C     -0.096782    1.931646   -2.805616
C      0.809679    0.837155   -2.230783
O      2.096993    0.895810   -2.817047
Si     3.346091    0.597168   -1.640561
C      3.102949   -1.071529   -0.857579
C      2.226452   -1.214736    0.228386
C      1.986679   -2.477491    0.778675
C      2.630909   -3.602015    0.255293
C      3.508267   -3.466101   -0.824383
C      3.744212   -2.203596   -1.380981
C      5.001344    0.657329   -2.467424
C      5.111345    0.993512   -3.824726
C      6.372650    1.077577   -4.429903
C      7.525143    0.820462   -3.679748
C      7.416846    0.475320   -2.328574
C      6.160760    0.392630   -1.723993
C      3.337409    1.935758   -0.358043
C      2.857279    3.212487   -0.679441
C      2.878424    4.231841    0.276480
C      3.406142    3.988447    1.547814
C      3.910978    2.722791    1.865504
C      3.884193    1.698382    0.913867
C      0.067490   -0.496537   -2.521485
C      0.298569   -1.010799   -3.968396
C      1.622368   -1.721067   -4.114882
C      1.799041   -3.052433   -3.979949
C      0.671985   -4.006129   -3.662621
C      1.179144   -5.452660   -3.544625
C      0.044511   -6.483686   -3.629047
C     -0.932540   -6.359701   -2.494151
O     -0.674008   -6.983961   -1.275608
O     -1.982013   -5.674982   -2.639575
H      3.285766   -0.831372    4.785720
H      3.159082    0.907317    4.319748
H      2.482933    0.337386    5.902817
H      0.824367   -1.089024    4.658529
H      1.500210   -0.488629    3.098862
H      0.215559    1.269199    5.290732
H      0.836676    1.865094    3.716311
H     -1.687619    1.541818    3.890167
H     -1.429035   -0.229653    4.028204
H     -0.400759   -0.301150    1.777735
H     -0.413003    1.497957    1.667574
H     -2.916832    1.449733    1.833381
H     -6.638025   -2.082959    0.596345
H     -7.879674   -1.621476   -1.473553
H     -7.606629    0.548999   -2.639905
H     -6.080883    2.265999   -1.714438
H     -4.834928    1.834960    0.361896
H     -3.735255   -0.410064    4.971008
H     -3.994929    1.232659    6.793635
H     -5.294709    3.309721    6.422532
H     -6.363117    3.729701    4.227888
H     -6.131518    2.094527    2.402104
H     -3.575059   -3.271505    1.972266
H     -4.306215   -5.443600    2.882744
H     -6.345991   -5.588081    4.286220
H     -7.653490   -3.540815    4.787507
H     -6.936366   -1.355273    3.882716
H     -2.504712    1.660478   -0.465614
H     -1.542905   -1.250483   -0.367176
H     -2.101880   -0.762036   -2.903390
H      0.176967    2.170727   -3.855106
H     -0.071812    2.848789   -2.177889
H      0.812840    1.002519   -1.123584
H      1.717787   -0.353886    0.638886
H      1.300708   -2.585255    1.609807
H      2.448281   -4.579832    0.684737
H      4.006805   -4.341084   -1.228355
H      4.413325   -2.118115   -2.226622
H      4.228958    1.200161   -4.417177
H      6.455347    1.350595   -5.476131
H      8.501209    0.891474   -4.146802
H      8.311393    0.276136   -1.752503
H      6.094369    0.130791   -0.675217
H      2.463721    3.419002   -1.667572
H      2.503725    5.214430    0.026885
H      3.433941    4.782177    2.282417
H      4.329963    2.541746    2.844932
H      4.295478    0.730717    1.165540
H      0.385662   -1.291359   -1.809657
H      0.275545   -0.162929   -4.685230
H     -0.526174   -1.684500   -4.282452
H      2.493056   -1.121589   -4.367408
H      2.806957   -3.442749   -4.112656
H     -0.088396   -3.945322   -4.463389
H      0.211476   -3.704662   -2.699490
H      1.895404   -5.668976   -4.372506
H      1.728825   -5.574664   -2.583206
H     -0.488400   -6.384451   -4.603174
H      0.484813   -7.503983   -3.598868
H     -1.335222   -6.909397   -0.506290
