38

C     -0.680652    3.101193   -0.613272
C      0.679284    2.491224   -0.441596
O      1.523194    2.690573   -1.301421
C      1.052776    1.754811    0.827059
C      1.454816    0.258770    0.657069
C      1.846034   -0.281347    2.048822
C      2.680499    0.110468   -0.267265
Si     0.002089   -0.803004   -0.002329
C     -1.500923   -0.590480    1.096389
C      0.450170   -2.620046    0.066327
C     -0.432970   -0.421855   -1.770350
C     -1.638731    0.221895   -2.088782
C     -1.958302    0.499816   -3.421376
C     -1.082389    0.127811   -4.444167
C      0.111617   -0.528671   -4.135766
C      0.433945   -0.807965   -2.804336
H     -0.605974    4.201972   -0.493481
H     -1.399569    2.707725    0.134193
H     -1.066845    2.883796   -1.629848
H      0.216122    1.825453    1.555120
H      1.900075    2.308763    1.288101
H      0.993470   -0.213814    2.757552
H      2.173258   -1.341172    1.993151
H      2.688621    0.306320    2.473707
H      3.517882    0.746434    0.092334
H      2.447512    0.405196   -1.308198
H      3.034063   -0.942410   -0.289051
H     -2.336388   -1.200763    0.696436
H     -1.263971   -0.932698    2.123935
H     -1.806191    0.474056    1.126102
H     -0.360397   -3.213024   -0.404581
H      1.397898   -2.798593   -0.480355
H      0.564785   -2.939972    1.121791
H     -2.331012    0.519203   -1.313056
H     -2.885428    1.004301   -3.660793
H     -1.331094    0.343475   -5.475191
H      0.786009   -0.824798   -4.928803
H      1.355855   -1.330827   -2.585434
