40

C     -1.691410    0.768981   -2.892202
C     -1.507800    0.004115   -1.557548
C     -2.714112    0.311439   -0.641324
C     -1.476190   -1.504769   -1.906586
C     -0.971403   -2.356691   -0.748037
C      0.487445   -2.012984   -0.356851
C      0.750473   -2.675065    1.018810
C      1.468889   -2.612045   -1.389810
C      0.708112   -0.495103   -0.281318
C     -0.218602    0.446370   -0.849736
C      0.030452    1.834521   -0.687861
C      1.198662    2.262379   -0.067855
C      2.109848    1.363535    0.399215
C      1.903336   -0.006722    0.306076
C      3.222924    2.078948    0.971149
O      4.235798    1.540207    1.490479
C      3.004572    3.551302    0.863371
C      1.631314    3.676992    0.162005
H     -0.773558    0.690786   -3.514502
H     -2.541654    0.346349   -3.470889
H     -1.916294    1.843518   -2.732700
H     -3.659036   -0.060225   -1.092974
H     -2.821341    1.406021   -0.483606
H     -2.590391   -0.156713    0.357315
H     -2.494078   -1.854307   -2.189140
H     -0.832110   -1.684590   -2.794111
H     -1.049140   -3.429263   -1.033788
H     -1.649089   -2.220499    0.122059
H      0.451112   -3.745794    1.000643
H      0.166363   -2.163579    1.814436
H      1.823436   -2.647897    1.299312
H      1.288877   -3.700704   -1.521788
H      2.520867   -2.480207   -1.057462
H      1.368171   -2.113908   -2.376453
H     -0.670162    2.580624   -1.034737
H      2.664782   -0.673662    0.684677
H      3.807681    4.013811    0.250479
H      2.977588    4.009908    1.875042
H      1.729661    4.209958   -0.808142
H      0.899463    4.199716    0.814705
