36

C     -1.600408    0.226911   -0.756749
O     -0.784514    1.004664    0.095444
C      0.239877    0.122521    0.565577
C     -0.064123   -0.319302    2.017492
C      0.160719    0.824429    2.958101
O     -0.552404    0.953023    3.942799
C      1.364877    1.706728    2.741926
C      1.258862    3.034878    3.503578
C      1.539991    1.963097    1.234481
O      1.511804    0.755328    0.490325
C      0.237392   -1.050775   -0.425696
C      1.275006   -2.097917   -0.502644
O      0.030905   -2.328997    0.131168
C     -0.698922   -0.705361   -1.530482
C     -1.576168   -1.762980   -2.207263
C     -2.562906   -1.059246   -3.182611
C     -2.948298    0.372819   -2.799777
C     -2.432449    1.007387   -1.725780
H     -2.311596   -0.351547   -0.117886
H     -1.111977   -0.683139    2.096936
H      0.620044   -1.141403    2.319033
H      2.259775    1.160271    3.112635
H      0.350653    3.594404    3.191466
H      2.153591    3.662234    3.303516
H      1.209442    2.846945    4.597374
H      2.529591    2.440646    1.071289
H      0.781518    2.686035    0.858155
H      1.351168   -2.652656   -1.460752
H      2.099639   -2.035046    0.237361
H     -0.119729   -0.146346   -2.301979
H     -2.150661   -2.335528   -1.445707
H     -0.939377   -2.480880   -2.767334
H     -2.091302   -1.017864   -4.187757
H     -3.486197   -1.669523   -3.274528
H     -3.600255    0.924724   -3.469591
H     -2.675941    2.046952   -1.529870
