36

C      1.060472    1.562510    0.146636
O     -0.126667    1.007156    0.674933
C     -0.013337   -0.406925    0.484904
C     -0.882532   -0.853403   -0.715425
C     -2.333659   -0.780716   -0.351521
O     -3.158766   -0.464053   -1.196298
C     -2.755303   -1.248447    1.019128
C     -4.160354   -0.759066    1.395554
C     -1.723201   -0.771045    2.056272
O     -0.398555   -1.098293    1.667063
C      1.485259   -0.657047    0.259267
C      2.132132   -1.983904    0.255270
O      1.829198   -1.300670   -0.946546
C      2.196950    0.629827    0.491597
C      3.417675    1.039908   -0.337742
C      3.811744    2.501050    0.022793
C      2.657305    3.390516    0.493983
C      1.395451    2.934529    0.642449
H      0.938713    1.643560   -0.961126
H     -0.655609   -1.908198   -0.981500
H     -0.674589   -0.212181   -1.599897
H     -2.760905   -2.360567    1.013830
H     -4.208466    0.351075    1.370956
H     -4.911924   -1.169103    0.687610
H     -4.425237   -1.107433    2.416657
H     -1.826927    0.319455    2.255214
H     -1.930917   -1.282108    3.020474
H      3.225255   -2.004503    0.445446
H      1.467449   -2.860782    0.399718
H      2.442080    0.689136    1.577679
H      3.188359    0.973756   -1.424430
H      4.267179    0.356214   -0.124458
H      4.299701    2.976786   -0.854104
H      4.561115    2.469089    0.842482
H      2.885001    4.406953    0.799474
H      0.620788    3.577677    1.048196
