34

C      0.739119   -0.180329    0.782366
C      1.334632   -1.574091    0.612991
C      2.745578   -1.464091   -0.077592
C      3.337363   -0.012052   -0.253182
C      2.284464    1.026508   -0.623848
O      2.582632    2.159206   -0.967688
C      0.872480    0.565083   -0.552025
C     -0.382518    1.468068   -0.560679
C     -0.409915    2.327592    0.685926
Cl    -0.378569    4.082660    0.728314
C     -0.689768    1.519997    1.717123
Cl    -1.034260    2.015911    3.366077
C     -0.740352    0.106499    1.178379
C     -1.449236    0.410174   -0.162157
O     -1.495159   -0.747302   -0.996740
C     -1.985630   -0.435049   -2.284722
O     -2.740400    1.008672   -0.016878
C     -3.639336    0.149438    0.655022
H      1.382043    0.283489    1.575841
H      1.435946   -2.053406    1.610863
H      0.657293   -2.206111   -0.001469
H      3.477358   -2.082700    0.484975
H      2.664380   -1.917041   -1.089883
H      4.121319   -0.035529   -1.040042
H      3.817683    0.301531    0.698146
H      0.773656   -0.124162   -1.422880
H     -0.567152    2.020005   -1.506099
H     -1.205196   -0.645043    1.850400
H     -2.051586   -1.375106   -2.869429
H     -1.294888    0.240594   -2.831006
H     -3.007813   -0.001047   -2.247364
H     -3.447328    0.163501    1.748522
H     -3.608855   -0.893368    0.270081
H     -4.669621    0.528210    0.496806
