37

C      2.512245    4.344934   -1.425926
O      2.031874    3.040023   -1.725699
C      2.562331    1.885865   -1.137655
O      3.505388    1.979632   -0.304440
C      2.017913    0.554262   -1.489663
C      1.119025    0.431470   -2.476465
C      0.571968   -0.881980   -2.848475
O     -0.104944   -0.989304   -3.905341
C      0.768868   -2.093390   -1.970730
O     -0.477519   -2.539374   -1.533516
C     -0.616314   -2.076196   -0.200625
C     -0.957178   -3.272600    0.708205
C     -2.268139   -3.970869    0.290085
C     -3.293477   -3.017658   -0.354835
C     -3.140577   -1.586430    0.165656
C     -1.743558   -1.009466   -0.143197
O      0.586823   -1.488458    0.254237
C      1.544218   -1.809906   -0.704618
C      2.584819   -0.687126   -0.839135
H      1.936681    5.089085   -2.013664
H      3.586490    4.425912   -1.695929
H      2.379430    4.559765   -0.344409
H      0.774220    1.301220   -3.022663
H      1.269202   -2.893658   -2.557817
H     -0.126104   -4.011025    0.687776
H     -1.053524   -2.912546    1.756714
H     -2.719615   -4.444597    1.188964
H     -2.038174   -4.785534   -0.430825
H     -3.160528   -3.016421   -1.459132
H     -4.322091   -3.381940   -0.143691
H     -3.308118   -1.584575    1.265470
H     -3.919173   -0.938832   -0.292360
H     -1.506056   -0.253449    0.637461
H     -1.780959   -0.462735   -1.110779
H      2.067708   -2.736980   -0.377428
H      2.979498   -0.453172    0.173089
H      3.433589   -1.051012   -1.457647
