40

C     -0.793120   -1.774041    3.216712
C      0.240034   -0.631251    3.246052
C     -0.093285    0.308745    4.414538
C      1.662372   -1.188648    3.445975
O      0.165139    0.146058    2.041879
C      0.374475   -0.323282    0.736818
O      0.726942   -1.514845    0.522973
N      0.171453    0.573870   -0.360617
C      0.229393    0.133537   -1.760266
C     -1.026366   -0.680418   -2.140100
C     -2.317880    0.065398   -1.901628
C     -2.912658    0.806397   -2.937200
C     -4.098467    1.511178   -2.708677
C     -4.699652    1.480809   -1.447543
C     -4.116805    0.744259   -0.412918
C     -2.931300    0.037921   -0.637004
C      0.427753    1.314722   -2.690219
O     -0.253680    2.320889   -2.556420
C      1.437688    1.264490   -3.800274
Br     2.859038    2.532703   -3.454356
H     -1.804741   -1.370199    2.996907
H     -0.542802   -2.525980    2.440867
H     -0.824814   -2.297663    4.196606
H     -1.111380    0.735866    4.286902
H      0.631264    1.150708    4.450422
H     -0.055729   -0.231916    5.385189
H      1.754311   -1.676516    4.440448
H      1.913176   -1.946607    2.676434
H      2.407907   -0.367201    3.383920
H     -0.094637    1.558770   -0.133440
H      1.107289   -0.539930   -1.874296
H     -1.038924   -1.625828   -1.555435
H     -0.956189   -0.983506   -3.208231
H     -2.455350    0.842320   -3.918291
H     -4.550618    2.082228   -3.509235
H     -5.617209    2.027418   -1.272242
H     -4.583719    0.720415    0.563245
H     -2.493198   -0.530272    0.173936
H      1.881712    0.251641   -3.895660
H      0.945126    1.519195   -4.762147
