34

C     -0.564268   -1.025849    0.510297
C      0.095664   -2.276600    1.083498
C      1.446024   -1.882568    1.786426
C      1.952311   -0.407926    1.558400
C      0.828427    0.622983    1.565304
O      1.058471    1.821526    1.553130
C     -0.560316    0.072714    1.583935
C     -1.882013    0.849768    1.266479
Cl    -1.892405    2.544000    1.847418
C     -2.962866   -0.032947    1.853416
Cl    -3.990634    0.321857    3.236134
C     -2.993957   -1.150008    1.116627
Cl    -4.105198   -2.494946    1.342852
C     -2.009079   -0.960170   -0.024278
Cl    -2.337487   -2.005805   -1.439016
C     -2.146723    0.579144   -0.237772
O     -1.134747    1.193635   -1.039621
C     -1.228083    0.835193   -2.403286
O     -3.469830    0.898169   -0.683944
C     -3.727130    2.286851   -0.701964
H      0.086160   -0.756325   -0.357271
H     -0.585449   -2.765238    1.813896
H      0.291321   -2.999003    0.261519
H      1.315028   -2.026534    2.881248
H      2.243514   -2.588539    1.469767
H      2.687850   -0.152925    2.351006
H      2.472458   -0.351148    0.578400
H     -0.663939   -0.359287    2.610269
H     -0.748377    1.633157   -3.005787
H     -0.661801   -0.099529   -2.592009
H     -2.272075    0.734261   -2.770976
H     -4.478152    2.491639   -1.491895
H     -4.175967    2.596448    0.264179
H     -2.835456    2.910076   -0.930972
