60

C     -0.581901    1.298863   -3.669106
O     -0.806689    1.038387   -2.290305
C     -0.461046   -0.173986   -1.684655
O      0.035914   -1.115231   -2.363814
C     -0.680119   -0.351216   -0.212569
C      0.635149   -0.388138    0.592890
C      1.495198    0.877239    0.399214
C      0.832187    2.130567    0.916496
O      0.568279    2.220760    2.106795
C      0.586369    3.309835    0.010323
C     -0.822111    3.800983    0.128899
O     -1.042036    4.996401    0.464025
O     -1.881456    2.930510   -0.147589
C     -3.249161    3.328267   -0.136889
C     -3.562706    4.140132   -1.362540
C     -3.811516    5.519693   -1.265467
C     -4.083981    6.268018   -2.414630
C     -4.103320    5.646512   -3.666448
C     -3.849650    4.275530   -3.770911
C     -3.579246    3.523707   -2.624040
O      1.399346   -1.504339    0.174071
Si     1.480616   -2.756349    1.378866
C      2.332327   -2.098276    2.913395
C     -0.241947   -3.332366    1.843212
C      2.477773   -4.195978    0.638748
C      2.491690   -5.385778    1.611914
C      1.832289   -4.626181   -0.689879
C      3.918846   -3.726820    0.376327
H     -1.125765    0.555824   -4.293282
H      0.505300    1.251784   -3.887469
H     -0.954441    2.315576   -3.912735
H     -1.329689    0.461561    0.168194
H     -1.234005   -1.299783   -0.049633
H      0.350164   -0.416623    1.670687
H      2.445571    0.742245    0.958481
H      1.773428    0.989190   -0.669722
H      1.292731    4.120965    0.288938
H      0.778973    3.043196   -1.049637
H     -3.478126    3.886795    0.797428
H     -3.882003    2.415626   -0.137286
H     -3.793650    6.015646   -0.303261
H     -4.277936    7.330415   -2.334611
H     -4.312581    6.227413   -4.555566
H     -3.860738    3.795740   -4.740874
H     -3.381980    2.462325   -2.716322
H      1.684080   -1.350733    3.412406
H      2.528572   -2.928639    3.619501
H      3.289892   -1.617443    2.631614
H     -0.173020   -4.140908    2.599515
H     -0.764942   -3.710958    0.941910
H     -0.817753   -2.487917    2.273864
H      1.464742   -5.777873    1.770164
H      3.113809   -6.211421    1.204293
H      2.913668   -5.091712    2.596357
H      2.408605   -5.457636   -1.151169
H      0.791069   -4.977141   -0.529220
H      1.809159   -3.780649   -1.411161
H      4.513207   -4.537814   -0.095773
H      3.930012   -2.848535   -0.305691
H      4.421400   -3.442184    1.325446
