60

C      4.248304    1.538015   -0.472441
O      3.070312    1.303034    0.289122
C      2.165595    0.281672   -0.018166
O      2.329434   -0.437720   -1.040961
C      0.976315    0.060744    0.864231
C     -0.215646    0.934813    0.433694
C     -1.436268    0.630811    1.332309
C     -2.122996   -0.651856    0.936250
O     -2.767871   -0.687704   -0.101853
C     -2.093807   -1.859499    1.836987
C     -1.773510   -3.098939    1.061135
O     -0.591762   -3.309762    0.672840
O     -2.799596   -3.999635    0.752312
C     -2.596779   -5.189984   -0.007123
C     -1.753582   -6.173508    0.758887
C     -2.198831   -6.666504    1.996547
C     -1.414482   -7.572721    2.716940
C     -0.183588   -7.993945    2.205804
C      0.265609   -7.508799    0.973896
C     -0.514905   -6.601201    0.251291
O      0.154501    2.291168    0.583123
Si    -0.671929    3.367218   -0.518293
C     -2.003905    2.569159   -1.583897
C     -1.530378    4.659038    0.526411
C      0.630770    4.192727   -1.631269
C      1.768487    4.742760   -0.753088
C      1.197657    3.149441   -2.609458
C     -0.007346    5.345165   -2.426235
H      4.901233    0.639673   -0.447050
H      3.985299    1.777437   -1.524797
H      4.800911    2.393941   -0.034903
H      0.697080   -1.012351    0.822766
H      1.259272    0.294530    1.913478
H     -0.433880    0.668478   -0.624580
H     -2.179760    1.451746    1.261800
H     -1.123301    0.596062    2.398904
H     -1.343291   -1.732717    2.646990
H     -3.092002   -1.973213    2.311687
H     -2.138208   -4.933039   -0.987315
H     -3.585308   -5.651784   -0.213936
H     -3.150278   -6.346052    2.403523
H     -1.760708   -7.947588    3.672248
H      0.422149   -8.695904    2.764212
H      1.219762   -7.835240    0.579087
H     -0.151406   -6.231744   -0.700208
H     -2.765180    2.080925   -0.945295
H     -1.561003    1.821498   -2.271225
H     -2.503671    3.352242   -2.188649
H     -2.088540    5.362002   -0.125370
H     -2.242682    4.156415    1.211804
H     -0.782868    5.218151    1.123821
H      2.248924    3.926855   -0.172491
H      2.549123    5.224968   -1.380354
H      1.384780    5.500676   -0.038851
H      1.611291    2.278848   -2.060262
H      2.011724    3.591309   -3.224249
H      0.409514    2.783763   -3.301005
H     -0.843229    4.975227   -3.057575
H     -0.398498    6.129007   -1.743669
H      0.744451    5.819218   -3.093842
