57

C      2.450780    3.734755   -0.045575
C      1.640117    2.619475    0.644286
C      2.146212    2.492796    2.085994
C      1.699271    1.287386   -0.194796
C      1.060100    1.451583   -1.602496
C     -0.252346    2.198102   -1.627177
O     -0.357739    3.408902   -1.507626
C     -1.407496    1.317478   -1.963179
C     -1.920437    0.608419   -0.648127
C     -1.299824   -0.831151   -0.535752
C     -1.731494   -1.554386    0.750760
C     -1.798963   -1.552143   -1.776779
C     -1.502298   -0.989652   -2.926028
C     -1.953082   -1.772433   -4.098337
C     -2.668328   -2.980581   -3.463527
C     -2.523668   -2.838377   -1.935566
C     -0.701656    0.291127   -2.872664
C      0.589044    0.073371   -2.033962
O      1.559640   -0.697993   -2.728090
C      1.635786   -1.927142   -2.110971
O      2.341405   -2.878129   -2.535680
O      0.854387   -2.002397   -0.974845
C      0.272138   -0.720309   -0.711535
C      1.017616    0.035889    0.449314
C      2.020248   -0.914295    1.178094
O      1.321039   -2.019409    1.704324
C      1.973345   -2.334825    2.889157
C      2.694872   -1.089723    3.307209
O      2.725747   -0.250438    2.195385
H      2.098885    3.923087   -1.078276
H      2.350792    4.688839    0.515115
H      3.526660    3.459945   -0.090528
H      0.585111    2.951762    0.733804
H      3.204204    2.155952    2.104217
H      2.096714    3.479394    2.595596
H      1.497669    1.811378    2.672726
H      2.772639    1.042735   -0.362820
H      1.768645    1.884977   -2.341897
H     -2.215170    1.864104   -2.496977
H     -3.029464    0.528897   -0.694423
H     -1.688806    1.214743    0.254763
H     -1.270544   -2.563483    0.799771
H     -2.836284   -1.668247    0.774717
H     -1.434666   -0.984993    1.654102
H     -2.649319   -1.170027   -4.719743
H     -1.075972   -2.097223   -4.697912
H     -3.743413   -2.980572   -3.747415
H     -2.205569   -3.930331   -3.809682
H     -1.920297   -3.670542   -1.514120
H     -3.517287   -2.786861   -1.441661
H     -0.485074    0.694530   -3.887172
H      0.284728    0.392401    1.199953
H      2.770974   -1.284372    0.444148
H      2.690369   -3.165822    2.707847
H      1.232687   -2.644806    3.657313
H      3.731134   -1.320456    3.637361
H      2.149407   -0.580622    4.131795
