22

C      0.982118   -1.372909    3.089735
C      0.149249   -1.796079    1.921308
O     -0.334140   -2.958944    1.900749
C     -0.034929   -0.887966    0.772464
C     -0.904019   -1.029196   -0.298862
N     -1.913091   -2.036764   -0.459526
O     -2.649728   -2.459110    0.622048
O     -2.211589   -2.453774   -1.596888
N     -0.693083   -0.012938   -1.159800
C     -1.385323    0.239660   -2.423840
C      0.305895    0.711849   -0.605039
C      0.890290    1.950794   -1.206868
N      0.725601    0.209895    0.577002
H      0.698297   -0.347201    3.406521
H      0.827889   -2.062599    3.946705
H      2.054884   -1.385279    2.804971
H     -1.009327   -0.458934   -3.200098
H     -1.220759    1.281641   -2.767386
H     -2.478529    0.096361   -2.293252
H      0.126069    2.755421   -1.219885
H      1.761905    2.293277   -0.610270
H      1.228149    1.741791   -2.243274
