40

O     -2.428415   -2.785687   -2.044764
C     -1.632280   -2.194820   -1.264386
C     -1.931868   -0.762714   -0.924112
C     -2.140575   -0.618869    0.557300
C     -1.048454   -0.774150    1.426895
C     -1.240508   -0.682968    2.814147
C     -2.512199   -0.423336    3.330860
C     -3.600874   -0.265750    2.467678
Cl    -5.197906    0.051266    3.120180
C     -3.418131   -0.368775    1.084414
C      0.288641   -1.072758    0.870193
C      1.297299   -0.155196    0.910364
C      2.678226   -0.482341    0.363085
C      3.447278    0.764567   -0.079879
N      3.397017    1.799526    0.954893
C      2.019030    2.271404    1.105965
C      1.125196    1.159299    1.658204
C      0.455340   -2.411468    0.246776
N      1.489674   -3.184046    0.685077
C      1.722475   -4.434737    0.216677
C      0.880718   -4.983532   -0.742276
C     -0.199884   -4.238958   -1.208676
C     -0.446470   -2.937728   -0.726014
H     -2.832244   -0.418891   -1.479850
H     -1.089709   -0.118654   -1.257381
H     -0.406670   -0.816668    3.492203
H     -2.651443   -0.350881    4.401943
H     -4.269348   -0.256874    0.424167
H      3.257017   -1.008417    1.152594
H      2.609515   -1.145800   -0.525404
H      4.507064    0.482872   -0.263084
H      3.033415    1.146571   -1.041538
H      3.972620    2.607762    0.621129
H      2.002034    3.127297    1.815356
H      1.616628    2.636844    0.133101
H      1.371316    0.990568    2.728609
H      0.079220    1.528072    1.596139
H      2.561756   -5.003512    0.593833
H      1.060920   -5.981840   -1.119816
H     -0.844709   -4.688375   -1.953442
