40

O     -1.221315    0.885641    4.082201
C     -0.759639    0.578247    2.948817
C      0.596225    1.123166    2.591321
C      1.546517    0.007627    2.253159
C      2.625094   -0.315376    3.088400
C      3.492679   -1.350883    2.734485
C      3.270168   -2.056780    1.549934
N      2.214148   -1.738390    0.755181
C      1.356553   -0.732079    1.078311
C      0.208585   -0.428016    0.210692
C      0.363924    0.237540   -0.966758
C      1.730208    0.618237   -1.510514
C      1.785236    2.100778   -1.944872
N      0.474185    2.672489   -2.309844
C     -0.428703    1.669039   -2.879549
C     -0.834189    0.674338   -1.789186
C     -1.129202   -0.762265    0.764794
C     -1.578834   -0.290992    2.036920
C     -2.864129   -0.678241    2.475947
C     -3.667794   -1.523540    1.708927
Cl    -5.257504   -1.988068    2.288146
C     -3.201163   -2.015097    0.493686
C     -1.940101   -1.648042    0.031431
H      0.997149    1.727466    3.435036
H      0.498041    1.814952    1.727040
H      2.796188    0.232935    4.006276
H      4.329864   -1.604067    3.371949
H      3.934734   -2.861144    1.264531
H      1.928571   -0.023329   -2.396191
H      2.559990    0.436797   -0.797588
H      2.495624    2.198559   -2.796614
H      2.196115    2.701181   -1.104981
H      0.628697    3.418691   -3.027738
H     -1.341285    2.169271   -3.270959
H      0.060282    1.140343   -3.729399
H     -1.574932    1.173072   -1.126077
H     -1.313446   -0.203194   -2.269682
H     -3.251069   -0.330951    3.425876
H     -3.812401   -2.689891   -0.092103
H     -1.586448   -2.072093   -0.900079
