43

C     -3.257059    0.575023    1.750245
N     -2.387976   -0.148645    2.694354
C     -1.109731    0.575335    2.936053
C      0.145809   -0.161838    2.434577
C     -0.129288   -0.819349    1.098931
C      0.606403   -0.553967   -0.014665
C      0.280968   -1.145175   -1.338351
C     -0.037157   -0.350832   -2.482933
C     -0.320046   -1.013666   -3.697470
C     -0.266247   -2.405375   -3.793154
Cl    -0.620254   -3.195002   -5.319455
C      0.085294   -3.167191   -2.682988
C      0.366511   -2.543380   -1.470358
C     -0.074491    1.151394   -2.479262
O     -0.291801    1.762872   -3.561402
C      0.126655    1.990442   -1.246964
C      1.459576    1.695884   -0.616284
C      2.500361    2.634931   -0.629147
C      3.722624    2.326318   -0.028300
C      3.893888    1.078389    0.575248
N      2.878444    0.174486    0.571166
C      1.677401    0.453975   -0.005002
C     -1.346082   -1.719711    1.045880
C     -2.215960   -1.565483    2.305077
H     -4.206725    0.021091    1.589085
H     -3.524216    1.567487    2.172047
H     -2.750819    0.727217    0.772218
H     -1.003787    0.736916    4.029758
H     -1.120533    1.590342    2.475887
H      0.991520    0.554759    2.418142
H      0.420798   -0.954998    3.162980
H     -0.580368   -0.451458   -4.585645
H      0.148303   -4.245272   -2.759584
H      0.667803   -3.156121   -0.629782
H     -0.691142    1.784038   -0.523526
H      0.053462    3.069895   -1.506047
H      2.366403    3.601265   -1.098901
H      4.530019    3.047044   -0.030849
H      4.836066    0.826638    1.043251
H     -1.965872   -1.467326    0.158322
H     -1.029478   -2.779867    0.961475
H     -3.204954   -2.045735    2.136695
H     -1.745559   -2.117227    3.148432
