15

O      0.660314   -0.245960   -1.822094
C     -0.049682   -0.369164   -0.786081
C      0.571818   -0.240177    0.580512
C      2.032582   -0.392943    0.540479
N      3.183202   -0.513230    0.509806
C     -1.500543   -0.582530   -0.937558
C     -2.447314   -0.630741    0.082148
C     -3.751571   -0.840162   -0.382716
C     -3.841320   -0.955683   -1.763429
S     -2.296094   -0.795925   -2.405504
H      0.325372    0.757157    1.000690
H      0.164218   -1.023021    1.253749
H     -2.213398   -0.512535    1.131687
H     -4.610045   -0.903269    0.272543
H     -4.750429   -1.118023   -2.326340
