15

O     -1.052772   -1.691456    1.111389
C      0.017922   -1.035574    1.001597
C      1.320805   -1.712392    1.309198
C      1.990252   -2.104673    0.065449
N      2.519082   -2.413628   -0.916439
C     -0.039189    0.366795    0.546437
C      1.040861    1.215440    0.318512
C      0.660594    2.491176   -0.116005
C     -0.713028    2.655458   -0.233662
S     -1.454017    1.211229    0.202823
H      1.142421   -2.621472    1.922095
H      1.980757   -1.033985    1.888997
H      2.075175    0.929563    0.454561
H      1.370906    3.275521   -0.340899
H     -1.216647    3.557775   -0.552868
