21

C      0.718279    3.642408   -0.577814
C     -0.293394    2.764222    0.097738
O     -1.448844    3.150777    0.188742
C      0.087868    1.425412    0.673739
C     -0.563733    0.287999   -0.129612
C     -0.230475   -1.127591    0.389402
C      1.251435   -1.493887    0.216155
N     -0.669360   -1.300319    1.776900
O     -1.987269   -1.597684    2.034234
O      0.085441   -1.014943    2.730303
H      0.395772    3.843827   -1.620793
H      1.719197    3.163380   -0.604923
H      0.798642    4.604899   -0.030588
H      1.191246    1.311797    0.663033
H     -0.249157    1.391603    1.731191
H     -0.247686    0.365398   -1.193627
H     -1.668635    0.415671   -0.105026
H     -0.805106   -1.843134   -0.240116
H      1.406771   -2.558171    0.493485
H      1.557571   -1.362069   -0.843429
H      1.904414   -0.868780    0.859402
