37

O      0.882304    1.025669    4.071171
C      1.116025    1.380933    2.926326
C      2.539903    1.392178    2.417435
C      2.659814    0.835159    0.976160
C      1.412842    1.114079    0.057436
C      1.727889    1.758686   -1.296014
C      0.459762    2.588841   -1.604497
N     -0.407251    2.558624   -0.398457
C     -1.441632    1.501977   -0.533947
C     -0.858686    0.099327   -0.532975
C     -1.697063   -0.987979   -0.852737
C     -1.125560   -2.249664   -0.938404
C      0.197841   -2.452791   -0.738167
C      1.065357   -1.417042   -0.409863
C      0.526545   -0.115491   -0.228595
O      0.492376   -3.788971   -0.930783
C     -0.726272   -4.468459   -1.262458
O     -1.733884   -3.448024   -1.258603
C      0.553477    2.225157    0.659474
C     -0.014679    1.852718    2.047359
H      2.903965    2.442054    2.434512
H      3.195718    0.806205    3.098424
H      3.576856    1.266591    0.520558
H      2.867494   -0.244045    1.078202
H      2.604109    2.440671   -1.221301
H      1.931000    1.006109   -2.090212
H     -0.051482    2.196566   -2.512700
H      0.744805    3.641997   -1.817728
H     -2.177648    1.597432    0.292130
H     -2.023308    1.662817   -1.468605
H     -2.750613   -0.847024   -1.058429
H      2.120886   -1.630799   -0.342989
H     -0.956993   -5.237500   -0.495733
H     -0.647783   -4.925855   -2.270974
H      1.182075    3.135602    0.830479
H     -0.496793    2.743363    2.503918
H     -0.762156    1.036045    1.997368
