37

O     -4.577103    2.413703   -0.832028
C     -3.419927    2.037357   -0.727151
C     -2.631502    1.681126   -1.951155
C     -1.842947    0.379530   -1.738470
C     -1.060236    0.305755   -0.375368
C     -1.546156   -0.816669    0.548520
C     -1.210219   -0.300352    1.957082
N     -0.784026    1.115246    1.829409
C      0.698043    1.212017    1.797492
C      1.303427    0.556046    0.562872
C      2.697785    0.358180    0.504247
C      3.214417   -0.326069   -0.587795
C      2.421552   -0.809015   -1.574131
C      1.042419   -0.631560   -1.570635
C      0.462854    0.126370   -0.519788
O      3.197183   -1.477548   -2.501823
C      4.564263   -1.400368   -2.075232
O      4.529792   -0.658715   -0.848270
C     -1.295300    1.537312    0.519353
C     -2.778173    1.967908    0.626505
H     -3.307948    1.564427   -2.826187
H     -1.925575    2.510615   -2.172916
H     -1.165252    0.305530   -2.609889
H     -2.546760   -0.476924   -1.825084
H     -1.047178   -1.788848    0.337373
H     -2.645889   -0.961975    0.460679
H     -2.111151   -0.353344    2.605535
H     -0.431088   -0.940639    2.429782
H      0.993102    2.283820    1.812145
H      1.126200    0.756359    2.717647
H      3.349929    0.698153    1.298722
H      0.453511   -1.101919   -2.344305
H      4.967935   -2.418934   -1.896210
H      5.171815   -0.861038   -2.831886
H     -0.733983    2.419184    0.123450
H     -2.831151    2.967908    1.108323
H     -3.360542    1.260322    1.253328
