26

O     -1.360238    0.022530   -0.503431
C     -0.198383   -0.385785   -0.230313
C      0.006147   -1.290918    0.955518
C     -1.004572   -2.462301    1.016573
C     -0.199668   -3.722275    1.379495
C      1.198553   -3.299163    1.161064
O      2.187824   -4.076392    1.224328
N      1.311791   -1.917943    0.883789
C      2.531649   -1.200528    0.525334
C      2.279461   -0.322477   -0.674912
C      3.371520    0.146793   -1.421795
C      3.169005    0.986193   -2.519037
C      1.876657    1.373648   -2.874864
C      0.780576    0.927473   -2.132636
C      0.967117    0.081824   -1.023828
H     -0.054723   -0.689588    1.888875
H     -1.491071   -2.620234    0.028064
H     -1.793848   -2.264591    1.773946
H     -0.463204   -4.576597    0.719650
H     -0.347915   -3.991613    2.447127
H      3.346835   -1.922234    0.300623
H      2.845647   -0.566156    1.380946
H      4.381260   -0.138893   -1.153428
H      4.016060    1.339350   -3.092900
H      1.723692    2.024843   -3.725831
H     -0.212060    1.245701   -2.425676
