26

O      1.799870   -1.157701    0.264985
C      1.131061   -0.351392   -0.437710
C      0.600295   -0.800796   -1.773230
C     -0.099706   -2.181006   -1.723912
C     -1.388626   -2.052939   -2.554214
C     -1.533924   -0.592554   -2.721317
O     -2.538583   -0.039636   -3.242553
N     -0.413550    0.123752   -2.242636
C     -0.277200    1.575305   -2.167608
C      0.240779    1.974832   -0.808476
C      0.082416    3.301587   -0.378031
C      0.579627    3.706408    0.862311
C      1.248400    2.794625    1.679800
C      1.427440    1.474598    1.259274
C      0.933291    1.050472    0.012154
H      1.434328   -0.825570   -2.508235
H      0.560449   -2.974262   -2.136949
H     -0.371804   -2.452252   -0.679325
H     -1.267472   -2.534277   -3.548193
H     -2.262336   -2.479454   -2.016228
H     -1.259386    2.061120   -2.355158
H      0.440079    1.914211   -2.944619
H     -0.427663    4.022990   -1.004615
H      0.448675    4.729930    1.189100
H      1.632836    3.112298    2.640471
H      1.953823    0.786998    1.909347
