67

C      1.449607    2.075349   -3.853621
O      0.346162    1.519026   -3.149404
C     -0.524943    2.294697   -2.379387
O     -0.259204    3.502154   -2.125389
C     -1.805448    1.691570   -1.891550
C     -1.561203    0.537771   -0.890348
C     -2.879848   -0.193863   -0.497350
C     -3.732010   -0.592005   -1.688070
C     -3.210825   -1.469221   -2.792092
O     -4.888034   -0.202186   -1.749537
C     -2.607239   -1.417713    0.336750
O     -1.831326   -2.313704   -0.093684
O     -3.253935   -1.571755    1.568384
C     -3.161028   -2.753888    2.360033
C     -1.816881   -2.849069    3.029262
C     -0.815990   -3.684072    2.505053
C      0.434377   -3.761887    3.127213
C      0.690892   -3.014547    4.278777
C     -0.297684   -2.177770    4.804618
C     -1.548562   -2.094426    4.182792
N     -0.877218    1.032955    0.319465
C      0.244816    0.358165    0.974704
C      1.538906    0.649615    0.237515
C      2.377455   -0.409952   -0.148565
C      3.598319   -0.151283   -0.776788
C      3.996755    1.164978   -1.018604
C      3.172277    2.225681   -0.637014
C      1.943179    1.972731   -0.022783
C      0.211989    0.871903    2.455049
C      1.550757    1.255885    3.050942
C      1.917221    2.601245    3.246181
C      3.170544    2.921086    3.777886
C      4.069407    1.905922    4.113048
C      3.720192    0.568462    3.909824
C      2.467554    0.243338    3.382157
O     -0.714214    1.951035    2.452616
C     -1.378108    1.981423    1.248987
O     -2.336380    2.762866    1.014885
H      2.032851    1.255534   -4.321424
H      2.109153    2.636331   -3.162152
H      1.082752    2.759001   -4.648468
H     -2.455577    2.472852   -1.447682
H     -2.334364    1.310999   -2.788796
H     -0.893626   -0.197318   -1.393185
H     -3.479702    0.506340    0.124210
H     -3.812822   -2.400871   -2.837642
H     -2.147584   -1.741819   -2.635797
H     -3.298344   -0.935603   -3.761961
H     -3.365336   -3.647804    1.730819
H     -3.951767   -2.720567    3.139156
H     -1.000447   -4.276622    1.618692
H      1.201646   -4.410384    2.721117
H      1.658724   -3.076591    4.759031
H     -0.092584   -1.589521    5.689712
H     -2.302470   -1.432788    4.594022
H      0.055940   -0.738044    0.982914
H      2.097226   -1.436591    0.050815
H      4.245488   -0.971114   -1.062318
H      4.946369    1.363269   -1.496924
H      3.487450    3.244258   -0.819298
H      1.322463    2.807730    0.274284
H     -0.225580    0.073658    3.088257
H      1.244096    3.404747    2.982376
H      3.445713    3.957909    3.922407
H      5.040654    2.154731    4.520933
H      4.421679   -0.215634    4.160566
H      2.215819   -0.796774    3.222305
