37

C      0.093486   -0.568924    0.276262
C      0.944997   -0.255072    1.492694
C      0.843961    1.276990    1.577938
C      2.023816    2.112083    1.149890
C      2.853890    2.840266    2.161973
O      2.329081    2.171878   -0.031530
C     -0.261049    1.941769    2.379518
C     -0.479711    1.678601    0.885263
C     -1.122171    0.355358    0.397488
C     -2.203574   -0.125416    1.415154
C     -1.749498    0.461443   -1.012872
C     -2.119861   -0.934555   -1.585612
C     -1.000043   -1.998897   -1.444408
C     -0.314067   -2.015811   -0.050750
C      0.901369   -2.951417   -0.070913
H      0.714574   -0.224597   -0.589721
H      1.997210   -0.578670    1.337425
H      0.548504   -0.739423    2.410159
H      3.908706    2.501528    2.091537
H      2.486102    2.643244    3.191049
H      2.806395    3.931705    1.965589
H     -0.072316    3.008710    2.622846
H     -0.732252    1.275440    3.126179
H     -0.376148    2.539829    0.188801
H     -2.891204    0.711754    1.661744
H     -2.825895   -0.953426    1.029266
H     -1.755964   -0.508288    2.353012
H     -2.659624    1.099024   -0.977268
H     -1.033927    0.952265   -1.709716
H     -3.047561   -1.312730   -1.109854
H     -2.361713   -0.818228   -2.664110
H     -0.235795   -1.798002   -2.228216
H     -1.430590   -3.001812   -1.655575
H     -1.022600   -2.407662    0.709352
H      0.590721   -3.972590   -0.378600
H      1.348223   -3.021356    0.943247
H      1.673170   -2.582497   -0.780291
