37

C     -0.088535   -0.774823   -0.363714
C      1.286823   -0.623043   -0.988255
C      1.558930    0.881004   -0.854258
C      1.490822    1.753028   -2.081586
C      2.737564    2.316607   -2.691184
O      0.411103    1.978018   -2.607017
C      2.228090    1.429475    0.393336
C      0.697482    1.396770    0.317821
C     -0.091937    0.170355    0.845668
C      0.608531   -0.411450    2.111220
C     -1.573998    0.491707    1.190427
C     -2.546311   -0.691452    0.899192
C     -1.884610   -2.095415    0.874597
C     -0.592218   -2.188145   -0.002495
C     -0.845394   -3.017369   -1.269809
H     -0.797259   -0.363155   -1.125155
H      2.051241   -1.217397   -0.443448
H      1.277350   -0.935023   -2.055075
H      2.822794    1.977773   -3.744874
H      3.637630    1.977993   -2.135968
H      2.695078    3.425479   -2.665914
H      2.660937    2.445185    0.274373
H      2.753086    0.661798    0.993914
H      0.177833    2.357197    0.106366
H     -0.057632   -1.073417    2.696007
H      1.509544   -1.004610    1.854706
H      0.907335    0.412773    2.794090
H     -1.665382    0.793507    2.257358
H     -1.921916    1.364822    0.595819
H     -3.023708   -0.523637   -0.091369
H     -3.364291   -0.687326    1.651558
H     -1.648699   -2.396693    1.916001
H     -2.647243   -2.828924    0.532099
H      0.193927   -2.714961    0.582363
H      0.085874   -3.105356   -1.867857
H     -1.170625   -4.043280   -0.994566
H     -1.634464   -2.546915   -1.894982
