57

C      2.036358    0.287671    0.525667
C      2.791096    1.561415    0.039741
C      2.104512    2.269075   -1.121612
C      1.977757    1.372449   -2.359042
C      1.280209    2.183511   -3.479713
O      3.283499    1.097048   -2.812921
C      1.230897    0.025747   -1.992319
C     -0.341419    0.088543   -2.142455
C     -1.131451    0.952248   -1.131593
C     -2.671537    0.838354   -1.300109
C     -3.340576    1.878276   -0.373083
O     -2.990833    1.113232   -2.646445
C     -3.142795   -0.560146   -0.918898
C     -4.411973   -0.962881   -1.056483
C      1.805389   -0.717563   -0.685322
C      0.815981   -1.861786   -0.311902
C      3.173659   -1.396264   -1.035636
C      3.874925   -2.079933    0.146030
C      3.959309   -1.182952    1.349140
O      4.971702   -1.225382    2.034905
C      2.758374   -0.356032    1.797418
C      3.239623    0.746635    2.789472
C      1.791696   -1.268191    2.612180
H      1.051823    0.651510    0.875103
H      3.842402    1.320589   -0.225684
H      2.819962    2.323461    0.844748
H      2.708536    3.166872   -1.383221
H      1.123695    2.646705   -0.779710
H      1.925977    3.032588   -3.792071
H      1.109910    1.545746   -4.373313
H      0.312930    2.612490   -3.149561
H      3.218981    0.553559   -3.642036
H      1.481946   -0.660559   -2.832993
H     -0.756842   -0.936582   -2.144387
H     -0.592807    0.435647   -3.164919
H     -0.863098    2.013306   -1.281945
H     -0.873128    0.677045   -0.094005
H     -4.447334    1.835317   -0.455927
H     -3.062937    1.692076    0.687100
H     -3.019781    2.905688   -0.649161
H     -3.973894    1.222953   -2.725526
H     -2.434652   -1.271373   -0.504936
H     -4.694007   -1.969235   -0.764341
H     -5.178891   -0.304552   -1.449890
H      0.542614   -2.448367   -1.214299
H      1.233562   -2.619595    0.361202
H     -0.102069   -1.469109    0.165887
H      3.027971   -2.153096   -1.837785
H      3.895954   -0.661725   -1.429757
H      4.902623   -2.358969   -0.176151
H      3.374064   -3.029129    0.422023
H      3.621501    0.306044    3.736296
H      4.087884    1.331466    2.374432
H      2.403554    1.432871    3.045512
H      2.010007   -1.250260    3.701543
H      1.887054   -2.338104    2.346831
H      0.734226   -0.950906    2.496699
