26

O      2.259001   -3.308341    1.037053
C      3.371992   -2.924043    0.275190
C      3.051780   -1.693524   -0.580081
C      2.718557   -0.469509    0.287637
C      2.476985    0.791007   -0.556298
C      1.222961    0.686061   -1.387039
O      1.348975    0.417596   -2.613198
C     -0.142125    0.856273   -0.813696
C     -0.349824    1.192600    0.538144
C     -1.645183    1.341109    1.036393
C     -2.732420    1.155070    0.184478
N     -2.526459    0.832112   -1.118181
C     -1.275956    0.680820   -1.630187
H      1.621603   -3.740799    0.410613
H      4.216258   -2.695453    0.960040
H      3.693120   -3.762586   -0.383513
H      3.935090   -1.465803   -1.215726
H      2.196592   -1.930849   -1.249220
H      1.825544   -0.683327    0.913201
H      3.570765   -0.269188    0.973153
H      3.352644    0.960983   -1.220891
H      2.418515    1.680638    0.104833
H      0.476307    1.341740    1.218176
H     -1.804603    1.598682    2.075560
H     -3.741293    1.267411    0.558436
H     -1.171230    0.421677   -2.675648
