22

C     -0.035486   -1.641803    1.855099
C      0.759927   -0.325952    1.877171
C      1.003814    0.084027    0.422222
C      2.070537    0.931735    0.095041
C      2.317445    1.267980   -1.239687
C      1.502583    0.763228   -2.258211
C      0.424794   -0.072671   -1.951377
C      0.156953   -0.407460   -0.617056
C     -1.005869   -1.258419   -0.237640
O     -1.659889   -1.932528   -1.076779
C     -1.399265   -1.200591    1.204631
C     -1.346652   -2.117737    2.403965
Cl    -1.820377   -1.403916    3.967177
Cl    -1.778411   -3.814798    2.071015
H      0.502504   -2.472163    1.336814
H      0.233328    0.481411    2.431798
H      1.731243   -0.513956    2.382020
H      2.716965    1.321203    0.871601
H      3.146880    1.918096   -1.486433
H      1.703641    1.026331   -3.288665
H     -0.205331   -0.443453   -2.750030
H     -1.759489   -0.187577    1.495789
