25

C      1.056453    0.607746   -1.565571
C     -0.335612    0.055475   -1.240847
C     -1.336640    0.482585   -2.313744
O     -0.275161   -1.373937   -1.203680
C     -0.012833   -2.057367   -0.015603
O      0.241512   -3.289550   -0.037977
C     -0.076355   -1.335321    1.255431
C     -0.467472   -0.057167    1.243731
C     -0.657065    0.700941    2.523369
C     -2.015259    0.409143    3.099812
O     -3.006968    0.891565    2.573115
C     -2.175814   -0.467937    4.307838
Cl    -3.059773   -1.949034    3.865447
O     -0.761788    0.575045    0.026246
H      1.034252    1.718065   -1.600754
H      1.781509    0.295472   -0.784220
H      1.407878    0.221230   -2.546202
H     -1.403415    1.590635   -2.363627
H     -1.030518    0.092670   -3.308213
H     -2.342570    0.079095   -2.070540
H      0.133087   -1.849339    2.186238
H      0.146421    0.434096    3.244017
H     -0.568514    1.790982    2.327077
H     -1.189616   -0.759678    4.725545
H     -2.742158    0.077545    5.091513
