38

C     -0.915474    0.541384    5.307103
C     -1.817876   -0.458308    4.667954
O     -2.143384   -1.500245    5.299420
O     -2.255284   -0.251441    3.357295
C     -3.093532   -1.176656    2.670830
C     -3.379606   -0.673730    1.256802
C     -2.113820   -0.586869    0.444543
C     -1.624609   -1.717943   -0.224908
C     -0.431976   -1.648931   -0.950138
C      0.300116   -0.448785   -1.011047
N      1.531521   -0.374198   -1.763127
C      1.800307    0.820856   -2.586095
C      2.902187    0.576181   -3.623846
C      4.093381   -0.058879   -2.967887
O      5.221894    0.258067   -3.310738
C      3.900432   -1.102816   -1.904544
C      2.433092   -1.538868   -1.814593
C     -0.191526    0.680346   -0.331577
C     -1.384081    0.609986    0.393701
H     -1.165609    0.647094    6.383813
H      0.137709    0.206592    5.205795
H     -1.032750    1.528644    4.813008
H     -4.054801   -1.281344    3.219208
H     -2.600017   -2.172496    2.624512
H     -4.095585   -1.366131    0.762647
H     -3.872902    0.321460    1.311368
H     -2.168212   -2.653923   -0.186050
H     -0.088598   -2.531307   -1.474208
H      2.109853    1.658606   -1.924754
H      0.874388    1.122485   -3.122917
H      3.187892    1.542600   -4.093515
H      2.523640   -0.101894   -4.418676
H      4.225015   -0.684325   -0.927646
H      4.528466   -1.990138   -2.135433
H      2.173845   -2.161387   -2.698547
H      2.313800   -2.163285   -0.902048
H      0.354879    1.613698   -0.345309
H     -1.735903    1.488364    0.920719
