60

C     -1.991417   -0.933665    1.548428
C     -3.293616   -0.138191    1.486480
C     -2.986327    1.303399    0.995384
C     -1.756042    1.448674    0.100936
C     -0.946437    0.414266   -0.218303
O      0.262044    0.553738   -0.918873
Si     0.970624    1.984986   -1.643898
C      2.306123    1.327681   -2.775566
C     -0.255832    2.845393   -2.770940
C      1.730671    3.154003   -0.328735
C      0.865911    4.415683   -0.156719
C      3.143497    3.586836   -0.766029
C      1.828109    2.410516    1.016274
C     -1.392239   -0.970613    0.154924
C     -0.329565   -2.097389    0.217836
C      0.000451   -2.871241   -1.111171
C      1.528681   -2.878884   -1.334560
C     -0.661004   -2.296306   -2.389104
C     -0.510723   -4.315768   -0.880859
C     -1.501212   -4.239248    0.270603
C     -0.961192   -3.134201    1.178933
C      0.060758   -3.677695    2.195213
C     -2.048853   -2.373329    1.883731
O     -2.823947   -2.862276    2.690526
H     -1.293990   -0.447989    2.270241
H     -3.763621   -0.100784    2.492851
H     -4.011747   -0.629820    0.792473
H     -3.873274    1.705286    0.463061
H     -2.818081    1.943312    1.885053
H     -1.505511    2.446226   -0.202895
H      3.048181    0.758155   -2.178554
H      1.844911    0.648337   -3.523262
H      2.805221    2.164002   -3.306852
H     -1.015654    3.409209   -2.195173
H      0.289015    3.554249   -3.427977
H     -0.770198    2.090167   -3.395517
H      0.761412    4.954986   -1.122262
H     -0.141680    4.164282    0.224206
H      1.330258    5.114138    0.573026
H      3.583050    4.294069   -0.031447
H      3.824276    2.713383   -0.834979
H      3.113265    4.093001   -1.753673
H      0.821778    2.111163    1.380213
H      2.290033    3.064064    1.789668
H      2.453612    1.496115    0.912254
H     -2.195524   -1.266875   -0.553614
H      0.589462   -1.662829    0.675932
H      1.794754   -3.499368   -2.216427
H      2.062538   -3.289305   -0.449458
H      1.893864   -1.841504   -1.507585
H     -0.405760   -1.227490   -2.538055
H     -1.763610   -2.414945   -2.368846
H     -0.306159   -2.850171   -3.285043
H     -0.992845   -4.757277   -1.781021
H      0.319806   -4.996635   -0.583731
H     -1.591696   -5.216888    0.793823
H     -2.498936   -3.958690   -0.137340
H     -0.415472   -4.436977    2.851843
H      0.922344   -4.149497    1.675878
H      0.449518   -2.854083    2.833035
