28

C      2.845235   -2.628426   -0.137247
O      1.494565   -2.414911   -0.483289
C      0.874929   -1.525767    0.432443
C      0.109674   -2.330944    1.508152
C     -0.761111   -1.434508    2.354548
O     -1.152462   -1.831320    3.483779
C     -1.175607   -0.105821    1.866579
C     -0.832640    0.290298    0.635982
C     -0.989734    1.682822    0.143452
C     -0.279110    1.679745   -1.208434
C      0.606250    0.429881   -1.227185
C     -0.107754   -0.597591   -0.332076
N     -1.067155   -1.387592   -1.128707
O     -0.656877   -1.997417   -2.292576
O     -2.193504   -1.676549   -0.671233
H      3.435694   -1.694202   -0.263116
H      3.269933   -3.390861   -0.821785
H      2.943385   -3.013981    0.901547
H      1.610215   -0.869564    0.964271
H      0.838008   -2.855687    2.162750
H     -0.530550   -3.099555    1.024667
H     -1.690278    0.574122    2.534607
H     -0.488444    2.389026    0.840683
H     -2.063900    1.946066    0.034767
H     -1.031870    1.609477   -2.024539
H      0.324684    2.602157   -1.350646
H      1.599268    0.696296   -0.800838
H      0.766389    0.067358   -2.264868
