28

C     -2.488292    0.091543    2.175004
O     -1.179553   -0.438227    2.157461
C     -0.251819    0.299331    1.361645
C     -0.494185    1.832931    1.219632
C      0.559556    2.462980    0.344660
O      0.780504    3.699919    0.428928
C      1.316818    1.654491   -0.629728
C      1.065882    0.346391   -0.766524
C      1.949198   -0.579927   -1.522959
C      1.415236   -1.968302   -1.177474
C      0.545722   -1.791564    0.070032
C     -0.029540   -0.364817   -0.027492
N     -1.261500   -0.348808   -0.837867
O     -1.582083    0.756076   -1.594486
O     -2.104575   -1.264608   -0.733929
H     -3.159846   -0.652652    2.649578
H     -2.529196    1.012569    2.794618
H     -2.882794    0.283553    1.156607
H      0.717068    0.222112    1.906063
H     -0.466510    2.304221    2.225978
H     -1.477199    2.052005    0.755231
H      2.136436    2.108573   -1.173505
H      2.998690   -0.474283   -1.171112
H      1.887828   -0.382590   -2.614817
H      2.242986   -2.686752   -0.992228
H      0.786692   -2.345528   -2.014241
H     -0.233408   -2.580301    0.135449
H      1.198252   -1.886750    0.966782
