26

C     -2.730153   -2.522972    0.434115
O     -1.433271   -1.940092    0.460647
C     -0.913771   -1.209840   -0.613439
O     -1.590498   -1.052137   -1.666596
C      0.453753   -0.596623   -0.508969
C      1.512551   -1.673726   -0.257600
C      0.469838    0.445450    0.586911
O      0.327619    0.104289    1.752928
C      0.650664    1.908536    0.267241
C     -0.622091    2.712947    0.565503
C     -1.787801    2.267729   -0.278222
C     -1.826934    2.483693   -1.596166
H     -2.914455   -3.045754    1.394916
H     -3.498932   -1.732497    0.300924
H     -2.799565   -3.258306   -0.395276
H      0.697269   -0.115588   -1.482150
H      2.520972   -1.209879   -0.207843
H      1.509297   -2.411534   -1.088454
H      1.317928   -2.209921    0.696373
H      0.940535    2.051269   -0.795686
H      1.483503    2.306926    0.885655
H     -0.427409    3.792120    0.383335
H     -0.886938    2.599700    1.639186
H     -2.627710    1.774790    0.202424
H     -1.010476    2.986685   -2.105063
H     -2.684436    2.155503   -2.174362
