26

C      0.215344    3.499086    2.630111
O     -0.652393    2.707102    1.828280
C     -0.339140    1.399684    1.444922
O      0.756859    0.877783    1.791897
C     -1.301833    0.642398    0.572212
C     -1.420505   -0.827297    0.991841
C     -0.919384    0.784489   -0.885002
O     -1.676152    1.378489   -1.639334
C      0.391382    0.260142   -1.427226
C      0.187761   -0.702764   -2.606301
C     -0.511607   -1.970356   -2.195243
C      0.103653   -2.908717   -1.470006
H      0.381763    3.006113    3.611326
H     -0.250191    4.491418    2.800477
H      1.187207    3.641608    2.111746
H     -2.308251    1.096286    0.715862
H     -1.788012   -0.892241    2.038282
H     -0.441723   -1.347166    0.931552
H     -2.147316   -1.352543    0.336015
H      0.991006    1.126746   -1.779223
H      0.982456   -0.240945   -0.632439
H      1.175565   -0.955862   -3.049322
H     -0.407471   -0.199596   -3.398779
H     -1.532260   -2.139989   -2.524951
H      1.129585   -2.776565   -1.140129
H     -0.423013   -3.818080   -1.199946
