31

C      3.233612   -0.763594    2.137736
C      2.221130    0.166688    2.738097
O      2.607173    1.151529    3.349392
C      0.743683   -0.093972    2.609464
C      0.087168    0.951937    1.697340
C     -1.423072    0.725973    1.547971
C     -1.717627   -0.544797    0.812713
O     -2.259743   -1.504892    1.423291
O     -1.354338   -0.649930   -0.538264
C     -1.444797   -1.828976   -1.350938
C     -2.910981   -2.279582   -1.494498
C     -0.898480   -1.465844   -2.739985
C     -0.583175   -2.960073   -0.757292
H      3.871014   -0.204336    1.421273
H      2.745455   -1.600328    1.595547
H      3.873633   -1.184350    2.941224
H      0.571789   -1.110915    2.196337
H      0.281719   -0.057583    3.619902
H      0.246233    1.964051    2.129962
H      0.569048    0.932478    0.694410
H     -1.905376    0.714544    2.550139
H     -1.858862    1.571782    0.974581
H     -2.994042   -3.110074   -2.228542
H     -3.539347   -1.432837   -1.844669
H     -3.320227   -2.642625   -0.529981
H     -0.936221   -2.340558   -3.425053
H     -1.496031   -0.641487   -3.185531
H      0.155920   -1.123273   -2.661556
H     -0.992109   -3.313698    0.211133
H     -0.549721   -3.830063   -1.448192
H      0.454703   -2.601451   -0.586471
