26

C     -0.496404    0.218143   -1.185603
C      0.445561   -0.902022   -0.719272
C      1.931266   -0.412093   -0.790224
C      2.177657    0.915270   -1.586285
C      1.135147    1.983640   -1.289981
O      1.306052    3.147678   -1.615291
C     -0.098728    1.550445   -0.570198
C     -1.517909    2.054858   -0.849345
C     -1.919466    0.561167   -0.758023
C     -2.102536    0.206864    0.725520
C     -0.978442    0.881688    1.580387
O      0.134408    1.417641    0.838968
H     -0.461973    0.246818   -2.305233
H      0.310123   -1.778160   -1.389299
H      0.214756   -1.241791    0.310774
H      2.291481   -0.252723    0.249782
H      2.563797   -1.216127   -1.224101
H      2.160323    0.698018   -2.675563
H      3.186003    1.304919   -1.329301
H     -1.946021    2.722083   -0.068603
H     -1.633365    2.462642   -1.879910
H     -2.726558    0.232114   -1.447354
H     -3.098730    0.561468    1.067770
H     -2.078618   -0.897042    0.850834
H     -1.426535    1.707861    2.172993
H     -0.590688    0.143238    2.313325
