26

C      0.299487    1.315805   -0.769675
C      1.223306    1.311851   -1.996900
C      2.668649    0.882595   -1.573718
C      2.955278    0.867344   -0.032966
C      1.815418    0.262324    0.773690
O      1.963544   -0.061914    1.941148
C      0.512550    0.067392    0.071737
C     -0.873222    0.294658    0.683626
C     -1.191532    1.019671   -0.648191
C     -1.583916   -0.042132   -1.686716
C     -0.652161   -1.292625   -1.553056
O      0.528471   -1.109634   -0.748068
H      0.508045    2.252106   -0.190518
H      0.854457    0.638168   -2.796769
H      1.249270    2.338335   -2.421809
H      3.409884    1.543400   -2.072444
H      2.849998   -0.144348   -1.960054
H      3.884664    0.287302    0.152556
H      3.123121    1.907533    0.318955
H     -0.849741    0.993194    1.551482
H     -1.459202   -0.629203    0.886449
H     -1.858165    1.905452   -0.571787
H     -1.512259    0.390682   -2.707705
H     -2.641472   -0.342516   -1.523548
H     -1.237961   -2.130822   -1.118569
H     -0.339998   -1.619530   -2.567218
