24

C     -1.361163    1.240951    1.171666
C     -1.591798    2.084514    0.024681
C     -0.300914    1.559230   -0.534664
O      0.407708    1.816628   -1.542604
N     -0.244575    0.569732    0.567463
C     -0.241819   -0.875971    0.731170
C     -1.133594   -0.915271    1.907798
O     -1.053058   -1.629164    2.895301
C     -2.231548    0.010407    1.532010
S     -2.861576   -0.846053    0.022459
C     -1.168549   -1.542660   -0.326539
C     -0.751899   -1.250759   -1.782084
C     -1.197574   -3.074233   -0.127820
H     -1.034315    1.813358    2.071796
H     -2.466105    1.806852   -0.599443
H     -1.526541    3.168395    0.260254
H      0.770930   -1.308996    0.874812
H     -2.988344    0.185549    2.325012
H     -1.117663   -0.263826   -2.122844
H     -1.198971   -1.989590   -2.481358
H      0.353014   -1.296741   -1.887747
H     -0.184524   -3.502352   -0.287088
H     -1.900229   -3.547041   -0.847121
H     -1.538204   -3.349400    0.891870
