37

C     -0.752187    1.983787    3.345760
O     -0.326831    2.247369    2.014456
C     -0.979322    1.717248    0.897674
O     -2.002008    0.990924    1.042220
C     -0.442671    2.029369   -0.478474
C     -1.250994    1.381196   -1.619291
C     -0.705342    1.819300   -2.991253
C      0.800609    1.723632   -3.049322
O      1.353945    1.386136   -4.084503
C      1.618241    2.151924   -1.859701
N      0.974904    1.650173   -0.639458
C      1.550099    0.505796    0.027122
O      2.803672    0.382065    0.081434
O      0.712694   -0.466110    0.597396
C      1.127204   -1.638277    1.312494
C      1.953744   -1.254429    2.554930
C      1.930799   -2.576390    0.392612
C     -0.148424   -2.361454    1.769749
H     -0.728229    0.891285    3.543716
H     -1.782323    2.369441    3.498526
H     -0.067754    2.492934    4.054713
H     -0.527107    3.133687   -0.590542
H     -1.187922    0.273391   -1.537410
H     -2.320488    1.676475   -1.546349
H     -1.159317    1.184946   -3.783275
H     -0.998869    2.873519   -3.184478
H      1.653711    3.261910   -1.828974
H      2.662939    1.784241   -1.956505
H      2.931383   -0.814416    2.271723
H      2.157089   -2.150213    3.180668
H      1.401463   -0.511539    3.168703
H      2.901966   -2.125402    0.103952
H      2.144466   -3.538459    0.906565
H      1.355684   -2.789082   -0.533971
H     -0.752792   -1.697730    2.425249
H      0.097485   -3.287636    2.333189
H     -0.771283   -2.636039    0.891208
