75

C     -1.013939    1.764123    1.581647
C      0.413107    1.246404    1.869261
C      1.415122    1.764802    0.803409
N      1.336260    3.226882    0.670688
C      0.864884    3.878357   -0.515654
O      0.335567    3.202681   -1.440386
O      1.007571    5.270769   -0.625401
C      0.556289    6.082970   -1.719517
C     -0.977699    6.009756   -1.843510
C      0.962632    7.533050   -1.407653
C      1.227011    5.652270   -3.041543
C      2.845178    1.347892    1.208712
O      3.226811    1.993925    2.400455
C      3.849882    1.604240    0.136143
O      4.078129    2.708855   -0.334536
C      4.592326    0.379929   -0.265661
C      3.974880   -0.723776    0.601518
N      2.904491   -0.097481    1.377338
C      1.807279   -0.848283    1.918929
N      2.033933   -2.075925    2.302148
C      1.087224   -3.004014    2.828273
O      0.837965   -3.020868    4.065973
O      0.458972   -3.894882    1.954813
C     -0.431818   -4.919724    2.386951
C     -0.980443   -5.645833    1.188511
C     -2.359491   -5.892936    1.068864
C     -2.858479   -6.586579   -0.039301
C     -1.985526   -7.045471   -1.030321
C     -0.612506   -6.812948   -0.913544
C     -0.108219   -6.124217    0.194020
N      0.490293   -0.233981    1.955275
C     -0.678414   -1.027958    1.706263
O     -1.394148   -1.411010    2.668740
O     -1.015429   -1.358823    0.395071
C     -2.245846   -1.987864    0.053859
C     -2.371440   -2.054011   -1.437453
C     -2.060521   -3.235616   -2.135456
C     -2.159833   -3.278826   -3.530252
C     -2.537875   -2.131730   -4.240890
C     -2.830159   -0.948535   -3.553219
C     -2.743274   -0.906034   -2.156157
H     -1.046834    2.870576    1.644472
H     -1.351068    1.454636    0.567587
H     -1.724763    1.376918    2.337234
H      0.703110    1.659860    2.860826
H      1.169959    1.273712   -0.166518
H      1.581483    3.819386    1.491712
H     -1.345867    6.720290   -2.613376
H     -1.453634    6.263414   -0.872341
H     -1.308720    4.992840   -2.141604
H      0.621617    8.221851   -2.212003
H      2.069047    7.607658   -1.327370
H      0.519167    7.861222   -0.440515
H      2.331093    5.608044   -2.916732
H      0.989791    6.371773   -3.856285
H      0.869221    4.654302   -3.369174
H      4.094332    1.605342    2.692148
H      4.429498    0.176690   -1.347190
H      5.678492    0.502874   -0.050838
H      4.732507   -1.155127    1.294585
H      3.557660   -1.528083   -0.048955
H      0.117964   -5.642400    3.027636
H     -1.257206   -4.468478    2.984279
H     -3.049657   -5.543546    1.830114
H     -3.921803   -6.775891   -0.124498
H     -2.368771   -7.580409   -1.888924
H      0.062018   -7.170379   -1.680131
H      0.959439   -5.959473    0.274099
H     -2.283466   -3.004767    0.500592
H     -3.097247   -1.400189    0.469054
H     -1.749008   -4.120656   -1.598417
H     -1.918879   -4.191672   -4.061682
H     -2.592713   -2.158907   -5.323985
H     -3.112920   -0.060638   -4.104246
H     -2.956170    0.021213   -1.635193
