41

C      0.761567    0.381382    0.400702
C      2.016883    0.566620   -0.498857
C      1.666013    0.840803   -1.970605
C      2.918276    1.056526   -2.807894
C      3.116197    2.392101   -3.476643
C      3.841681    0.089317   -2.955980
C      0.802894   -0.295953   -2.537337
C     -0.477985   -0.482900   -1.715010
C     -0.220717   -0.703102   -0.190270
C      0.352384   -2.122373    0.039620
C     -1.553730   -0.640328    0.542797
O     -2.540472   -1.195200    0.079210
C     -1.646819    0.008739    1.893580
C     -1.019623    1.415199    1.925741
C      0.013549    1.711702    0.791217
C      0.998463    2.792193    1.301448
O     -0.669512    2.214885   -0.333360
H      1.160443   -0.017837    1.362496
H      2.678492    1.367440   -0.113064
H      2.629319   -0.357483   -0.435131
H      1.069278    1.776216   -2.016509
H      3.142002    3.190276   -2.705380
H      4.062435    2.435022   -4.057699
H      2.270701    2.586951   -4.169170
H      3.724152   -0.880131   -2.483706
H      4.733250    0.251809   -3.553762
H      0.520475   -0.053596   -3.585346
H      1.370139   -1.250166   -2.560784
H     -1.132958    0.398277   -1.879062
H     -1.032588   -1.351680   -2.133988
H      1.333657   -2.257907   -0.456889
H      0.490039   -2.317307    1.125307
H     -0.339010   -2.895533   -0.360305
H     -1.115963   -0.645457    2.618922
H     -2.708159    0.068900    2.220964
H     -0.535077    1.532107    2.921277
H     -1.834169    2.172099    1.896241
H      1.701699    2.365396    2.048529
H      1.574489    3.231618    0.460109
H      0.444703    3.627798    1.781849
H     -1.089027    3.081047   -0.087246
