43

C      1.741075   -5.387731    0.607780
C      0.688109   -4.456189    1.208797
C      1.287958   -3.412640    2.165311
C      2.200765   -2.390941    1.462827
C      2.726635   -1.331921    2.438726
C      2.731598   -0.153209    1.573657
O      3.215916    0.926274    1.877576
C      2.129330   -0.471413    0.261939
C      1.140430    0.586880   -0.198096
C     -0.089638    0.829528    0.452598
Br    -0.654588   -0.188246    1.983777
C     -0.930968    1.865575    0.013958
O     -2.132107    2.074082    0.709815
C     -2.580711    3.350966    1.162356
C     -0.581922    2.648185   -1.108488
O     -1.506866    3.619349   -1.537384
C     -1.373344    4.496625   -2.649762
C      0.649450    2.407936   -1.766390
O      1.014389    3.182556   -2.879994
C      2.157619    2.952360   -3.700233
C      1.495370    1.389565   -1.292835
O      1.514166   -1.732957    0.407855
H      2.389929   -4.836688   -0.103319
H      1.234791   -6.205180    0.052523
H      2.363771   -5.838693    1.408766
H     -0.037513   -5.074862    1.779053
H      0.127099   -3.952575    0.393105
H      0.449645   -2.878208    2.660645
H      1.864009   -3.932295    2.962267
H      3.077418   -2.926677    1.032185
H      3.753230   -1.577107    2.791815
H      2.044940   -1.159339    3.299492
H      2.956730   -0.576328   -0.475618
H     -3.377267    3.193843    1.915950
H     -3.012821    3.945675    0.330784
H     -1.742788    3.903947    1.644939
H     -0.496140    5.161782   -2.514126
H     -1.293230    3.913875   -3.591091
H     -2.280938    5.131513   -2.713645
H      2.159598    3.688776   -4.530702
H      3.090169    3.086676   -3.109852
H      2.118518    1.928162   -4.130488
H      2.445298    1.215464   -1.778974
