53

C     -2.937825   -1.213503    0.572341
C     -4.204016   -1.726137    1.278503
C     -3.856392   -2.924086    2.103370
O     -4.382489   -3.105133    3.190072
C     -2.957127   -3.962990    1.512915
C     -1.812364   -3.299847    0.720242
C     -0.639721   -2.863380    1.629372
C      0.442239   -2.180966    0.849589
O      1.241239   -2.868923    0.159011
O      0.547439   -0.785629    0.885123
C      1.636278   -0.057272    0.312362
C      2.926537   -0.270241    1.136902
C      2.765722    0.084999    2.624931
C      4.041370   -0.227487    3.402983
C      1.275102    1.442152    0.196461
C      0.171766    1.722527   -0.855812
O      0.231408    3.092083   -1.230471
C      0.979275    3.262301   -2.416966
C     -1.248165    1.437647   -0.284824
C     -2.082897    0.484984   -1.179096
C     -2.556502    1.218634   -2.444293
C     -3.306697   -0.091674   -0.420884
O     -2.284987   -2.262162   -0.134913
H     -2.272133   -0.776423    1.342391
H     -4.624198   -0.925644    1.925192
H     -4.971324   -2.024114    0.532198
H     -2.552364   -4.629307    2.303818
H     -3.562534   -4.590358    0.822379
H     -1.402443   -4.092490    0.055584
H     -0.205148   -3.763628    2.116934
H     -0.986782   -2.200765    2.449360
H      1.832656   -0.441443   -0.713836
H      3.230771   -1.336580    1.051928
H      3.749752    0.336041    0.698097
H      2.545227    1.167673    2.738233
H      1.927598   -0.495989    3.068591
H      4.279926   -1.310976    3.338206
H      4.893653    0.360664    2.998084
H      3.899269    0.041007    4.471415
H      0.964171    1.848533    1.182547
H      2.192676    1.994487   -0.099296
H      0.352175    1.045938   -1.727707
H      1.118281    4.346586   -2.593790
H      0.432833    2.844302   -3.287932
H      1.988250    2.801131   -2.341307
H     -1.171832    1.020558    0.736097
H     -1.805143    2.391568   -0.150103
H     -1.442104   -0.362367   -1.509044
H     -1.694592    1.623011   -3.013454
H     -3.099259    0.517160   -3.113764
H     -3.239281    2.054734   -2.181114
H     -3.831580    0.729610    0.114806
H     -4.024921   -0.515547   -1.157107
