76

C     -2.211619   -3.281375    0.653855
C     -1.726998   -4.694820    0.325304
C     -0.909694   -4.521075   -0.935883
C     -0.360685   -3.102678   -0.816290
C      0.982172   -3.132759   -0.049612
N     -1.464581   -2.334276   -0.183450
C     -1.234310   -1.132515    0.662976
C     -0.073176   -0.203283    0.272562
O      0.014744   -0.112279   -1.129832
Si     1.241610    1.026056   -1.603728
C      2.046295    0.344303   -3.134854
C      1.397302   -0.644231   -3.889484
C      1.987546   -1.137324   -5.057023
C      3.222431   -0.639274   -5.481969
C      3.865978    0.356784   -4.742132
C      3.277882    0.852554   -3.574583
C      2.584469    1.161521   -0.300474
C      2.519565    2.110173    0.732848
C      3.501239    2.140783    1.727984
C      4.543757    1.211974    1.713407
C      4.599828    0.244202    0.708746
C      3.619985    0.211359   -0.287400
C      0.383469    2.663522   -2.104177
C     -0.302453    2.468227   -3.470481
C      1.419399    3.795183   -2.222605
C     -0.696591    3.044508   -1.074250
C     -1.215809   -1.574551    2.134420
O     -1.937262   -0.645138    2.924796
C     -1.330057   -0.490865    4.189063
C     -2.181688    0.418078    5.026046
C     -1.949388    1.803647    5.031373
C     -2.771550    2.652210    5.779901
C     -3.836542    2.125618    6.516571
C     -4.084590    0.750185    6.501405
C     -3.264585   -0.101945    5.754421
C     -1.943775   -2.864231    2.058208
O     -2.301752   -3.501193    3.036951
H     -3.298277   -3.188631    0.437485
H     -1.079642   -5.105912    1.132440
H     -2.580308   -5.386830    0.154866
H     -1.582521   -4.580699   -1.820542
H     -0.129944   -5.307345   -1.035236
H     -0.174469   -2.707331   -1.837605
H      1.590056   -4.009836   -0.356709
H      1.609591   -2.264024   -0.321834
H      0.835758   -3.200567    1.044898
H     -2.148162   -0.507829    0.523353
H      0.870193   -0.559539    0.729444
H     -0.283089    0.795489    0.718541
H      0.433756   -1.029222   -3.582946
H      1.485548   -1.902136   -5.635442
H      3.677355   -1.020966   -6.386988
H      4.819596    0.746323   -5.074159
H      3.787137    1.624838   -3.012349
H      1.714671    2.822413    0.786534
H      3.448064    2.880124    2.516630
H      5.300706    1.234474    2.486849
H      5.397739   -0.486864    0.706718
H      3.667889   -0.564526   -1.040458
H     -0.864041    3.382356   -3.761687
H      0.443522    2.265935   -4.268484
H     -1.018867    1.618593   -3.433617
H      0.927901    4.739094   -2.542770
H      2.195708    3.542214   -2.974808
H      1.920627    3.986912   -1.253257
H     -0.267889    3.211980   -0.068920
H     -1.209115    3.982782   -1.378042
H     -1.465886    2.246177   -0.998655
H     -0.170931   -1.757567    2.480184
H     -0.313164   -0.048216    4.078446
H     -1.229445   -1.473814    4.704964
H     -1.133970    2.226020    4.456710
H     -2.584629    3.718315    5.786057
H     -4.473048    2.783663    7.094170
H     -4.915198    0.344796    7.065160
H     -3.473496   -1.164825    5.741884
