76

C     -5.062565    2.215283   -0.280801
C     -3.920740    1.210858   -0.041854
C     -4.323943   -0.166383   -0.595761
C     -2.663122    1.705957   -0.777858
Si    -3.592969    1.054988    1.834961
C     -2.644299    2.524761    2.508983
C     -5.224864    1.022188    2.747831
O     -2.800845   -0.445274    2.213775
C     -1.417090   -0.414987    1.926899
C     -0.599699   -0.508697    3.208705
O     -0.445975    0.159222    4.217816
C     -0.051566   -1.812497    2.643688
C     -0.896051   -1.738691    1.390831
C     -0.084307   -1.587309    0.081589
O      0.946790   -0.640314    0.221560
Si     1.441894    0.113938   -1.277663
C      0.910033    1.901324   -1.120726
C      0.755525    2.442598    0.167068
C      0.403478    3.784751    0.335549
C      0.217393    4.604601   -0.778969
C      0.404623    4.087717   -2.062005
C      0.764510    2.747456   -2.233212
C      3.296261    0.113342   -1.184398
C      4.043728    1.184857   -1.697805
C      5.440701    1.152824   -1.650416
C      6.097859    0.048287   -1.101135
C      5.358519   -1.025487   -0.597910
C      3.961259   -0.996148   -0.642234
C      0.971048   -0.746023   -2.957899
C      1.023106   -2.284202   -2.836482
C     -0.435088   -0.326559   -3.439749
C      2.002482   -0.339024   -4.033893
C     -1.925517   -2.864324    1.260957
C     -2.697461   -3.303048    2.265562
H     -5.239412    2.354468   -1.369024
H     -6.011784    1.854668    0.169066
H     -4.813488    3.204469    0.161039
H     -4.542924   -0.100782   -1.683372
H     -3.503351   -0.901874   -0.453775
H     -5.230528   -0.549764   -0.080679
H     -2.317608    2.675985   -0.363568
H     -1.841816    0.968210   -0.705572
H     -2.875383    1.853402   -1.858410
H     -2.517740    2.406057    3.604333
H     -3.212966    3.454304    2.303968
H     -1.647057    2.597293    2.035251
H     -5.870443    0.223150    2.330211
H     -5.731427    2.003729    2.647077
H     -5.037736    0.818340    3.822015
H     -1.068145    0.452130    1.328423
H     -0.283006   -2.668679    3.312901
H      1.043328   -1.738122    2.465442
H     -0.811425   -1.306276   -0.702163
H      0.374514   -2.572490   -0.145810
H      0.913793    1.832565    1.046792
H      0.280093    4.191119    1.330990
H     -0.055586    5.643875   -0.647983
H      0.284226    4.729704   -2.925905
H      0.942012    2.396007   -3.233622
H      3.552606    2.041805   -2.139009
H      6.014458    1.981439   -2.044679
H      7.179361    0.023832   -1.068104
H      5.867758   -1.883000   -0.177030
H      3.401730   -1.838684   -0.255397
H      1.911776   -2.609217   -2.255514
H      1.083195   -2.757812   -3.840314
H      0.104186   -2.691979   -2.372116
H     -0.476590    0.744621   -3.707515
H     -1.212200   -0.512808   -2.676533
H     -0.716903   -0.900569   -4.348602
H      2.098838    0.758446   -4.125276
H      1.708383   -0.734174   -5.030582
H      3.005998   -0.751191   -3.795187
H     -2.039597   -3.350659    0.295857
H     -2.644511   -2.866677    3.257361
H     -3.402650   -4.109691    2.092641
