51

C     -5.234990   -3.704572   -2.926758
C     -3.949982   -2.890470   -2.732330
C     -4.297605   -1.449218   -2.330743
C     -3.043636   -3.570773   -1.683951
C     -1.684629   -2.921531   -1.603368
C     -0.714693   -3.191554   -2.578619
C      0.537742   -2.574198   -2.520678
C      0.845600   -1.666795   -1.489095
C      2.187091   -1.018738   -1.448646
O      3.085067   -1.402316   -2.247271
C      2.534536    0.066644   -0.464996
C      3.000437   -0.536588    0.868637
C      3.312299    0.540453    1.925465
C      2.104716    0.884837    2.813313
N      1.006387    1.481553    2.019776
C      1.166182    2.943615    1.833336
C      0.423088    3.760847    2.909722
O      0.297580    3.014240    4.100549
C     -0.584544    1.923033    3.900182
C     -0.321517    1.162326    2.578855
C     -0.136289   -1.398645   -0.514573
C     -1.387222   -2.018233   -0.573273
H     -5.809439   -3.763130   -1.977118
H     -4.989756   -4.734931   -3.262098
H     -5.874093   -3.234632   -3.704614
H     -3.416909   -2.863076   -3.708808
H     -4.980922   -0.995794   -3.080170
H     -3.380656   -0.824691   -2.291936
H     -4.791951   -1.427479   -1.335779
H     -2.904035   -4.641090   -1.953205
H     -3.539955   -3.556225   -0.688094
H     -0.929904   -3.880022   -3.386617
H      1.263516   -2.804180   -3.290650
H      3.355378    0.687545   -0.886681
H      1.668453    0.743630   -0.329537
H      3.929623   -1.117457    0.676587
H      2.245430   -1.252938    1.259621
H      3.722398    1.455369    1.446905
H      4.111357    0.148510    2.592103
H      2.434364    1.575357    3.621572
H      1.776310   -0.052854    3.315837
H      2.239998    3.233110    1.827611
H      0.765912    3.219900    0.834367
H      0.995868    4.687084    3.127085
H     -0.577651    4.080411    2.536311
H     -1.638610    2.276772    3.936044
H     -0.449265    1.217461    4.747036
H     -1.096952    1.450590    1.835074
H     -0.435122    0.066200    2.730755
H      0.052010   -0.717629    0.301158
H     -2.126279   -1.789254    0.184714
