74

C     -5.597101    4.542339    1.085171
C     -4.359378    4.347489    0.213762
C     -3.257908    3.602802    0.975240
C     -2.037602    3.430290    0.111454
C     -0.976769    4.347245    0.189348
C      0.152905    4.189730   -0.618653
C      0.237777    3.114773   -1.518195
C      1.460663    2.922727   -2.327650
O      2.081433    3.932192   -2.759032
C      1.966813    1.539227   -2.656311
C      3.497405    1.420173   -2.572907
C      4.077174    1.746644   -1.180740
C      4.178269    0.532703   -0.236705
N      2.876483   -0.115858    0.039740
C      3.098763   -1.485509    0.574150
C      2.049133   -1.965255    1.607377
C      0.617696   -1.398135    1.404391
C     -0.315177   -2.329246    0.521404
O     -0.463007   -3.561588    1.195350
C     -1.748006   -1.776704    0.315201
C     -2.359054   -0.897407    1.241016
C     -3.678196   -0.470496    1.064240
C     -4.432158   -0.947225   -0.007241
C     -3.877002   -1.869973   -0.890555
C     -2.559662   -2.301014   -0.718502
C      0.363796   -2.609645   -0.836503
C      0.256371   -1.703428   -1.913255
C      0.889648   -1.956072   -3.132101
C      1.639433   -3.117843   -3.303858
C      1.750889   -4.034966   -2.259416
C      1.120451   -3.787658   -1.037300
C      0.638017    0.105982    1.007549
C      2.047480    0.695662    0.948678
C     -0.846455    2.227379   -1.628776
C     -1.972245    2.379323   -0.815790
H     -5.347495    5.148402    1.981541
H     -6.379812    5.072480    0.504694
H     -5.999218    3.559212    1.409324
H     -3.983867    5.344437   -0.106764
H     -4.646193    3.769559   -0.692556
H     -2.992706    4.165419    1.898524
H     -3.630712    2.604978    1.293003
H     -1.019095    5.177256    0.883943
H      0.971244    4.894286   -0.526128
H      1.642873    1.284305   -3.688216
H      1.516132    0.797921   -1.972560
H      3.798254    0.394799   -2.878372
H      3.943772    2.116898   -3.316714
H      3.538868    2.586634   -0.698842
H      5.114178    2.117781   -1.333077
H      4.657016    0.856277    0.715294
H      4.870565   -0.193793   -0.718711
H      3.120856   -2.187755   -0.281639
H      4.095771   -1.574221    1.066793
H      2.040186   -3.075238    1.644788
H      2.403931   -1.641213    2.611205
H      0.183822   -1.422909    2.429553
H     -0.943900   -3.398340    2.051124
H     -1.841157   -0.549100    2.120310
H     -4.126097    0.212315    1.775312
H     -5.455184   -0.620105   -0.136473
H     -4.474788   -2.268449   -1.701322
H     -2.178061   -3.052551   -1.397343
H     -0.351586   -0.816171   -1.830688
H      0.789935   -1.252493   -3.948844
H      2.128234   -3.311900   -4.248897
H      2.329709   -4.940319   -2.395576
H      1.243016   -4.515316   -0.246070
H      0.057533    0.703710    1.742966
H      0.151862    0.263292    0.032233
H      2.495226    0.739301    1.968337
H      1.951056    1.736378    0.578751
H     -0.827579    1.423051   -2.351686
H     -2.794896    1.680786   -0.912283
