66

C      2.616528    3.383171    5.512381
C      1.541291    2.459325    4.926576
C      0.173288    3.156041    4.966838
C      1.521890    1.117294    5.690220
C      0.650166    0.089306    5.013229
C     -0.679622   -0.093816    5.419060
C     -1.493207   -1.028126    4.773476
C     -0.993557   -1.807640    3.711830
C     -1.890212   -2.790259    3.040705
O     -3.136000   -2.704933    3.221199
C     -1.386412   -3.901173    2.153384
C     -1.676491   -3.628442    0.669549
C     -0.750286   -2.556610    0.079905
C     -1.072931   -2.308730   -1.409053
N     -0.166566   -1.348095   -2.077118
C      1.256446   -1.722708   -2.012097
C      2.049350   -0.965610   -3.092153
C      1.456026    0.433333   -3.417594
C      0.534596    0.415873   -4.663128
C      1.303261    0.167602   -5.937948
C      1.206976   -1.068078   -6.601257
C      1.925415   -1.294017   -7.779089
C      2.744734   -0.291126   -8.302758
C      2.846627    0.939708   -7.649821
C      2.128182    1.171410   -6.473042
C      0.712079    1.002904   -2.191949
C     -0.400823    0.059369   -1.683063
C      0.341347   -1.613267    3.305678
C      1.150303   -0.669092    3.945436
H      3.618033    2.914292    5.416127
H      2.417708    3.586789    6.586058
H      2.637950    4.347820    4.962026
H      1.804029    2.266901    3.862106
H     -0.586262    2.551134    4.426365
H      0.230126    4.144867    4.462928
H     -0.160571    3.306232    6.016567
H      2.555581    0.713709    5.750756
H      1.185496    1.279491    6.737798
H     -1.089502    0.493010    6.232592
H     -2.513092   -1.147487    5.115388
H     -0.308735   -4.110005    2.314164
H     -1.919626   -4.832361    2.442398
H     -2.738340   -3.324343    0.544428
H     -1.530671   -4.576097    0.106948
H     -0.878867   -1.617822    0.654066
H      0.296839   -2.907039    0.189039
H     -2.121254   -1.947888   -1.499759
H     -1.026996   -3.275124   -1.957526
H      1.383197   -2.816152   -2.177102
H      1.675709   -1.471518   -1.010862
H      2.109589   -1.592834   -4.006180
H      3.094006   -0.840490   -2.730891
H      2.301481    1.124504   -3.632314
H     -0.264053   -0.347096   -4.540530
H      0.021633    1.398081   -4.758569
H      0.577630   -1.856163   -6.207286
H      1.847754   -2.247760   -8.284786
H      3.299190   -0.467999   -9.215149
H      3.479273    1.716888   -8.059353
H      2.213613    2.131806   -5.979605
H      0.285335    2.002721   -2.425513
H      1.451755    1.154987   -1.374593
H     -0.470619    0.169244   -0.581184
H     -1.368906    0.389114   -2.116782
H      0.767939   -2.167239    2.484710
H      2.169200   -0.527572    3.605955
