80

C      1.657386   -3.344310    0.936801
C      1.893651   -4.157831    2.220874
C      3.206746   -4.941895    2.108338
C      1.920231   -3.255881    3.475247
C      0.587377   -2.595419    3.724074
C     -0.446553   -3.298580    4.360115
C     -1.699344   -2.704278    4.543227
C     -1.946711   -1.402388    4.072178
C     -3.298449   -0.802808    4.217043
O     -4.047004   -1.180043    5.159636
C     -3.817321    0.231730    3.253971
C     -3.640161    1.653956    3.808845
C     -4.146689    2.755764    2.851190
C     -3.544790    2.736423    1.429673
C     -2.016082    2.967272    1.421517
N     -1.353371    2.640726    0.141975
C     -1.480117    1.229763   -0.266268
C     -0.447378    0.888031   -1.360067
C      0.233559    2.158225   -1.945998
C      1.133481    1.869682   -3.210030
O      0.276212    1.477548   -4.266033
C      2.209018    0.785685   -2.982973
C      2.823488    0.580224   -1.725679
C      3.842203   -0.363905   -1.572905
C      4.295138   -1.092625   -2.672702
C      3.736048   -0.871910   -3.930586
C      2.711332    0.064976   -4.089130
C      1.884378    3.144382   -3.626818
C      2.741665    3.804981   -2.716847
C      3.456829    4.942762   -3.101936
C      3.340558    5.437683   -4.402595
C      2.507817    4.797291   -5.318962
C      1.787212    3.659274   -4.941217
C     -0.852699    3.232047   -2.226623
C     -1.693731    3.552886   -0.964806
C     -0.901824   -0.699652    3.445869
C      0.351440   -1.289515    3.273737
H      0.647102   -2.881929    0.950019
H      2.419553   -2.542499    0.833966
H      1.710685   -4.004762    0.045923
H      1.065752   -4.895252    2.325872
H      3.173943   -5.622244    1.230203
H      3.364145   -5.561256    3.016692
H      4.067362   -4.247544    1.993052
H      2.715178   -2.486016    3.368327
H      2.185400   -3.864302    4.368594
H     -0.285893   -4.314007    4.701847
H     -2.483509   -3.274694    5.022557
H     -4.897027    0.043676    3.066230
H     -3.288910    0.112392    2.286065
H     -2.580110    1.838232    4.078924
H     -4.218957    1.735962    4.756170
H     -3.942770    3.745441    3.313990
H     -5.251779    2.665267    2.763010
H     -3.830545    1.790973    0.931007
H     -4.025735    3.551115    0.846190
H     -1.525807    2.371959    2.212914
H     -1.811170    4.028971    1.682601
H     -2.497067    1.029141   -0.666446
H     -1.318815    0.557480    0.603933
H     -0.967414    0.316971   -2.157233
H      0.315996    0.211583   -0.922838
H      0.873450    2.578816   -1.141509
H      0.001177    0.535574   -4.126216
H      2.532025    1.144223   -0.852233
H      4.289556   -0.520920   -0.599776
H      5.092843   -1.813254   -2.552119
H      4.108707   -1.415944   -4.788131
H      2.320584    0.238836   -5.083528
H      2.881959    3.434225   -1.711542
H      4.117859    5.430146   -2.395681
H      3.901959    6.315169   -4.699103
H      2.426723    5.176454   -6.330782
H      1.165860    3.183562   -5.688403
H     -1.532295    2.872708   -3.032318
H     -0.375214    4.170094   -2.587035
H     -1.484711    4.599161   -0.653551
H     -2.774291    3.481669   -1.212412
H     -1.044725    0.307079    3.090698
H      1.133542   -0.731838    2.772813
