65

O     -2.223666   -0.161182    3.453282
C     -2.735172    0.292964    2.392963
C     -2.145992    1.529569    1.756774
C     -0.635807    1.657526    2.014976
C     -0.044671    2.971807    1.477210
C     -0.165093    3.139425   -0.048878
N      0.334744    1.956430   -0.785140
C     -0.055884    2.031245   -2.200083
C      0.148581    0.660262   -2.833796
C      1.596488    0.116007   -2.653830
C      1.640156   -1.410197   -2.236774
O      0.746365   -2.115408   -3.072704
C      1.170754   -1.577125   -0.778335
C     -0.170031   -1.907828   -0.477713
C     -0.580911   -2.103369    0.843266
C      0.330732   -1.967558    1.889653
C      1.656638   -1.632110    1.617238
C      2.076306   -1.440965    0.298180
C      3.016312   -2.095569   -2.415585
C      3.152940   -3.438962   -1.998051
C      4.356700   -4.127656   -2.164079
C      5.443279   -3.500622   -2.771295
C      5.323388   -2.187796   -3.225177
C      4.121383   -1.491691   -3.063409
C      2.496793    1.065719   -1.807400
C      1.801676    1.797248   -0.632951
C     -3.940249   -0.370388    1.832279
C     -4.809089    0.307369    0.953279
C     -5.940968   -0.334687    0.440175
C     -6.221401   -1.654814    0.797919
C     -5.373541   -2.335043    1.673746
C     -4.242346   -1.697759    2.192728
H     -2.674118    2.421437    2.156382
H     -2.307654    1.477496    0.660007
H     -0.444142    1.628796    3.109803
H     -0.107380    0.795346    1.560010
H      1.026918    3.022046    1.766625
H     -0.549669    3.829435    1.972463
H     -1.237433    3.318576   -0.283191
H      0.380247    4.057901   -0.363096
H     -1.134024    2.288734   -2.300581
H      0.534232    2.807255   -2.739349
H     -0.099189    0.729627   -3.916476
H     -0.599894   -0.024980   -2.390128
H      2.014914    0.155928   -3.683750
H      1.050454   -2.007501   -4.012743
H     -0.904095   -2.037871   -1.261431
H     -1.608480   -2.366343    1.054663
H      0.008312   -2.116917    2.911927
H      2.363551   -1.523648    2.429702
H      3.115338   -1.198186    0.121784
H      2.319971   -3.957439   -1.538916
H      4.444198   -5.152166   -1.826108
H      6.374899   -4.035975   -2.900808
H      6.163829   -1.708096   -3.710382
H      4.083952   -0.486690   -3.451669
H      3.394855    0.542671   -1.422940
H      2.887210    1.849863   -2.494482
H      2.303070    2.784463   -0.511379
H      1.996881    1.236273    0.302637
H     -4.631040    1.337525    0.674452
H     -6.604299    0.194603   -0.232073
H     -7.098331   -2.149867    0.400711
H     -5.593047   -3.357824    1.951616
H     -3.597895   -2.248198    2.867100
