74

C      2.647129    4.529081    1.702518
C      1.741305    4.715709    2.928823
C      1.287684    6.177718    3.024891
C      0.513870    3.780340    2.881543
C      0.908007    2.326557    2.959448
C      1.214758    1.742471    4.196345
C      1.635122    0.411197    4.265491
C      1.761612   -0.366591    3.097478
C      2.250597   -1.772138    3.196844
O      2.380188   -2.303486    4.332016
C      2.555620   -2.619506    1.989528
C      1.357679   -3.518731    1.627441
C      1.169997   -3.660604    0.108883
N      0.566162   -2.434066   -0.455623
C     -0.907492   -2.392066   -0.267134
C     -1.690999   -2.655667   -1.563547
C     -1.356345   -1.618635   -2.683867
C     -2.462043   -0.474345   -2.806605
O     -3.713208   -1.135788   -2.828272
C     -2.463558    0.452532   -1.572666
C     -3.284641    0.154082   -0.458028
C     -3.304362    0.982901    0.667984
C     -2.513843    2.129176    0.707563
C     -1.697116    2.445282   -0.376845
C     -1.660324    1.614010   -1.499836
C     -2.397231    0.374999   -4.111734
C     -3.605719    0.768135   -4.746118
C     -3.601214    1.550531   -5.904445
C     -2.395574    1.995954   -6.441688
C     -1.196132    1.671585   -5.813287
C     -1.194924    0.885870   -4.657190
C      0.129906   -1.174500   -2.562984
C      0.994839   -2.227045   -1.854377
C      1.432155    0.224012    1.859211
C      1.022612    1.557371    1.793011
H      2.070792    4.674739    0.763698
H      3.485932    5.256025    1.726997
H      3.091731    3.512250    1.699262
H      2.336517    4.485923    3.841027
H      0.699154    6.465080    2.126425
H      0.660038    6.327397    3.929832
H      2.171313    6.848317    3.103110
H     -0.074065    3.971634    1.957814
H     -0.158916    4.008456    3.735805
H      1.142624    2.323269    5.107932
H      1.873036   -0.005691    5.236984
H      3.430449   -3.265467    2.218722
H      2.880915   -1.989896    1.137890
H      1.527985   -4.528872    2.060070
H      0.419703   -3.134966    2.084035
H      0.530896   -4.545251   -0.111282
H      2.166148   -3.868517   -0.345584
H     -1.253860   -3.121371    0.498038
H     -1.169525   -1.392264    0.130238
H     -1.426824   -3.675754   -1.920885
H     -2.771408   -2.700036   -1.323179
H     -1.416744   -2.190090   -3.638371
H     -3.721656   -1.768120   -3.596784
H     -3.910427   -0.727504   -0.445108
H     -3.939975    0.735656    1.509857
H     -2.533485    2.772628    1.579653
H     -1.082916    3.335086   -0.345311
H     -0.994874    1.894119   -2.299016
H     -4.569882    0.479245   -4.348840
H     -4.536111    1.822319   -6.378342
H     -2.392047    2.611124   -7.331714
H     -0.262205    2.056367   -6.205969
H     -0.247788    0.767290   -4.172235
H      0.227668   -0.218570   -2.011002
H      0.569778   -1.070556   -3.575212
H      2.049472   -1.878712   -1.858127
H      0.949105   -3.179794   -2.429471
H      1.486558   -0.327050    0.934177
H      0.807259    1.993544    0.827953
