74

C     -1.079670    0.632888    4.279168
C     -2.451717    0.096579    3.885162
C     -2.693935    0.255853    2.406971
C     -2.599040   -0.845526    1.543377
C     -2.837472   -0.695556    0.173964
C     -3.175652    0.562863   -0.356623
C     -3.483203    0.743821   -1.796861
O     -4.310776    1.632515   -2.137634
C     -2.844720   -0.095123   -2.873778
C     -2.150186    0.760469   -3.952172
C     -0.724326    1.193430   -3.568005
C     -0.691623    2.397512   -2.611661
C      0.734649    2.690834   -2.136296
N      1.190662    1.619554   -1.222414
C      2.598767    1.250214   -1.479639
C      3.222981    0.435168   -0.329011
C      2.179282   -0.299843    0.554228
C      1.507246   -1.561417   -0.121266
O      0.612693   -1.073259   -1.099339
C      2.599486   -2.436043   -0.758472
C      3.461462   -3.193730    0.062699
C      4.481060   -3.968908   -0.495446
C      4.670107   -3.987078   -1.877586
C      3.845306   -3.223504   -2.704100
C      2.822049   -2.447112   -2.153205
C      0.704828   -2.448151    0.868415
C     -0.013467   -3.560108    0.368110
C     -0.729169   -4.403444    1.221749
C     -0.730418   -4.172752    2.595390
C     -0.006002   -3.104536    3.119612
C      0.713405   -2.256686    2.272543
C      1.128806    0.726107    1.083074
C      0.976492    1.973394    0.192381
C     -3.262690    1.664345    0.512334
C     -3.017406    1.513769    1.879044
H     -0.283095    0.059843    3.765374
H     -0.987101    1.707094    4.011513
H     -0.940203    0.526910    5.375342
H     -3.234764    0.647209    4.450149
H     -2.520782   -0.973109    4.180414
H     -2.361205   -1.826056    1.931944
H     -2.794849   -1.574944   -0.454242
H     -2.114156   -0.816812   -2.455851
H     -3.648737   -0.691299   -3.355330
H     -2.765595    1.644547   -4.228210
H     -2.069144    0.135321   -4.868294
H     -0.186493    1.478236   -4.498898
H     -0.177064    0.331699   -3.133587
H     -1.088940    3.291289   -3.139962
H     -1.327322    2.218742   -1.724957
H      1.387006    2.773159   -3.036209
H      0.761230    3.686712   -1.637943
H      3.222581    2.158792   -1.644653
H      2.637900    0.641527   -2.408515
H      3.776958    1.143049    0.327692
H      3.994058   -0.256794   -0.726472
H      2.774483   -0.664270    1.419034
H      0.232255   -1.827251   -1.616381
H      3.345060   -3.183411    1.138964
H      5.129293   -4.551896    0.145852
H      5.462293   -4.585578   -2.307926
H      4.003168   -3.227758   -3.774702
H      2.218531   -1.849620   -2.822935
H     -0.006162   -3.799857   -0.686322
H     -1.276152   -5.244776    0.815898
H     -1.285655   -4.826987    3.254922
H      0.000729   -2.932064    4.188226
H      1.267926   -1.462632    2.742632
H      1.426218    1.062664    2.100031
H      0.131909    0.248317    1.186388
H     -0.045545    2.387249    0.342675
H      1.705257    2.754619    0.508312
H     -3.515839    2.646346    0.131865
H     -3.089240    2.377228    2.528791
