65

C     -0.492188    4.558615   -0.118962
C     -1.421661    3.413115    0.153580
C     -1.143140    2.513601    1.190562
C     -2.033154    1.476844    1.486895
C     -3.228588    1.330003    0.757539
C     -4.209859    0.259946    1.073763
O     -5.437812    0.474632    0.884673
C     -3.785322   -1.114720    1.518879
C     -3.637928   -2.063690    0.312528
C     -2.465688   -3.034191    0.493587
N     -1.193268   -2.284597    0.407254
C     -0.637799   -2.297524   -0.966272
C      0.765692   -1.658067   -1.031055
C      1.044847   -0.807412    0.229947
C      2.361637    0.058903    0.164139
O      2.566680    0.644785    1.431633
C      2.310858    1.225241   -0.850690
C      1.147308    1.599060   -1.567102
C      1.174123    2.672988   -2.462253
C      2.340566    3.416440   -2.635324
C      3.485244    3.092662   -1.909131
C      3.469278    2.016561   -1.018011
C      3.567401   -0.844423   -0.152233
C      4.360998   -1.385430    0.883014
C      5.442685   -2.221583    0.592531
C      5.749950   -2.537481   -0.731122
C      4.975757   -2.017993   -1.768390
C      3.891882   -1.182883   -1.485628
C      0.985300   -1.742260    1.467337
C     -0.192521   -2.741636    1.389378
C     -3.511571    2.249906   -0.267606
C     -2.616412    3.280588   -0.567671
H     -0.576585    4.892824   -1.175226
H     -0.745494    5.407828    0.549251
H      0.560689    4.256786    0.064185
H     -0.242688    2.624062    1.781484
H     -1.793984    0.826420    2.315334
H     -2.846271   -1.065235    2.103334
H     -4.551224   -1.525362    2.212744
H     -3.486513   -1.492951   -0.630410
H     -4.577908   -2.645457    0.191723
H     -2.584482   -3.543852    1.476400
H     -2.526702   -3.833303   -0.279145
H     -0.574330   -3.337689   -1.359524
H     -1.315973   -1.723029   -1.633671
H      1.516260   -2.475861   -1.092580
H      0.857301   -1.063733   -1.962534
H      0.197265   -0.101376    0.364421
H      1.788965    1.229364    1.629836
H      0.206905    1.083428   -1.455924
H      0.280671    2.939555   -3.012491
H      2.353964    4.250260   -3.326071
H      4.387104    3.677916   -2.035328
H      4.370082    1.794085   -0.458807
H      4.143704   -1.170710    1.921374
H      6.040756   -2.629738    1.396548
H      6.587015   -3.186917   -0.952152
H      5.212307   -2.265681   -2.795336
H      3.306121   -0.801290   -2.311626
H      0.875961   -1.122415    2.384333
H      1.924191   -2.324487    1.566556
H      0.182619   -3.752379    1.108521
H     -0.647084   -2.816326    2.402677
H     -4.426650    2.169333   -0.840460
H     -2.860800    3.981505   -1.356307
