77

C      2.914206    0.263418   -3.942313
C      2.505923    1.433049   -4.834187
C      2.040256    2.650931   -4.024020
C      0.700886    2.418634   -3.370206
C     -0.468323    2.414386   -4.145595
C     -1.711249    2.186266   -3.548761
C     -1.810049    1.968625   -2.160685
C     -3.121577    1.743501   -1.499071
O     -3.232854    1.965020   -0.262279
C     -4.307919    1.161408   -2.229297
C     -4.087947   -0.317947   -2.582108
C     -3.950675   -1.189424   -1.325347
C     -3.706582   -2.663994   -1.680221
C     -3.516248   -3.517226   -0.418393
N     -2.393168   -2.999829    0.391972
C     -1.082702   -3.500973   -0.090448
C      0.063725   -3.179979    0.895429
C     -0.325364   -2.008667    1.827846
C      0.848558   -1.506510    2.748463
O      1.202638   -2.559984    3.622656
C      0.355708   -0.310771    3.575446
C      0.183987   -0.399224    4.975932
C     -0.289420    0.695527    5.706443
C     -0.604984    1.890507    5.057671
C     -0.448634    1.994946    3.675017
C      0.023239    0.906203    2.938748
C      2.108399   -1.045794    1.985748
C      2.061591   -0.526514    0.670193
C      3.220689   -0.058004    0.047058
C      4.440718   -0.078950    0.721934
C      4.503512   -0.556129    2.031467
C      3.347761   -1.023112    2.663488
C     -1.575920   -2.426096    2.651667
C     -2.567466   -3.274777    1.829080
C     -0.633686    1.973348   -1.388919
C      0.609698    2.189249   -1.988754
H      3.768344    0.558924   -3.293810
H      2.062253   -0.068144   -3.311523
H      3.232140   -0.590854   -4.576727
H      1.708655    1.101417   -5.533393
H      3.382660    1.731064   -5.449757
H      1.954946    3.521165   -4.710031
H      2.810985    2.916150   -3.265995
H     -0.413611    2.588222   -5.214061
H     -2.589002    2.208217   -4.178317
H     -4.518129    1.740366   -3.152397
H     -5.217012    1.251143   -1.594407
H     -4.956843   -0.673041   -3.176818
H     -3.179098   -0.420516   -3.214254
H     -4.876473   -1.105073   -0.714088
H     -3.094527   -0.817134   -0.723238
H     -4.578116   -3.056046   -2.247692
H     -2.811343   -2.754567   -2.332220
H     -3.357567   -4.581009   -0.703019
H     -4.471382   -3.479771    0.150217
H     -0.849707   -3.013416   -1.061307
H     -1.111464   -4.601868   -0.259392
H      0.265461   -4.087424    1.505774
H      0.986727   -2.959496    0.321429
H     -0.651083   -1.165635    1.180055
H      1.684760   -3.254248    3.102523
H      0.407475   -1.311818    5.513217
H     -0.418707    0.615657    6.779215
H     -0.970659    2.736005    5.625585
H     -0.693988    2.922122    3.170956
H      0.125597    1.017604    1.868432
H      1.139177   -0.469951    0.113029
H      3.167704    0.334406   -0.958184
H      5.335129    0.289741    0.235852
H      5.447126   -0.552961    2.562213
H      3.420493   -1.359513    3.690238
H     -2.095018   -1.507666    3.005570
H     -1.280210   -3.008889    3.550292
H     -3.596502   -3.016007    2.163774
H     -2.407074   -4.358425    2.034103
H     -0.674475    1.803407   -0.319920
H      1.501007    2.182114   -1.372982
