80

C      1.524137    2.068231    6.063035
C      2.271124    0.766843    5.787639
C      2.088090    0.318719    4.333143
C      2.833942   -0.991769    4.063908
C      2.666286   -1.415015    2.628744
C      1.581098   -2.217594    2.248544
C      1.430749   -2.620423    0.918209
C      2.356994   -2.214401   -0.062677
C      2.234382   -2.658849   -1.477578
O      3.218692   -2.515038   -2.254297
C      0.977794   -3.323613   -1.988465
C      0.867039   -3.288801   -3.523373
C     -0.386803   -4.007741   -4.061340
C     -1.726970   -3.523424   -3.475528
C     -1.958354   -2.016074   -3.666621
N     -3.268603   -1.615404   -3.106881
C     -3.249204   -1.484925   -1.623116
C     -3.322263   -0.031445   -1.112015
C     -2.485974    0.913802   -2.000174
C     -2.441679    2.376687   -1.409462
O     -3.776171    2.797567   -1.195872
C     -1.703319    2.381216   -0.059996
C     -2.317601    2.886151    1.110064
C     -1.629773    2.907094    2.326434
C     -0.320118    2.435139    2.400884
C      0.307604    1.938662    1.259394
C     -0.370852    1.917207    0.038014
C     -1.720380    3.390688   -2.316828
C     -2.086985    4.753942   -2.271240
C     -1.409231    5.705010   -3.039562
C     -0.337189    5.320626   -3.845647
C      0.066662    3.985864   -3.875102
C     -0.607671    3.029413   -3.109939
C     -2.978435    0.845299   -3.477482
C     -3.810730   -0.416558   -3.778634
C      3.427211   -1.384699    0.322510
C      3.576689   -0.984904    1.653066
H      1.898092    2.876425    5.398024
H      0.434530    1.928181    5.898105
H      1.684565    2.374038    7.118739
H      1.889616   -0.020227    6.473908
H      3.351714    0.922958    5.998299
H      2.479088    1.108504    3.653522
H      1.004636    0.171584    4.125580
H      3.915486   -0.862373    4.292135
H      2.446807   -1.788908    4.736910
H      0.857947   -2.544296    2.985980
H      0.598764   -3.265940    0.671048
H      0.108363   -2.787477   -1.556973
H      0.961234   -4.378133   -1.638798
H      0.884032   -2.236578   -3.880640
H      1.755059   -3.794401   -3.962180
H     -0.413629   -3.886252   -5.165890
H     -0.288919   -5.096111   -3.857403
H     -2.547432   -4.071434   -3.987314
H     -1.782661   -3.803578   -2.403931
H     -1.144008   -1.432489   -3.192257
H     -1.917564   -1.809424   -4.759802
H     -4.115345   -2.045052   -1.211828
H     -2.343423   -1.954934   -1.181661
H     -2.956229   -0.007764   -0.062708
H     -4.383546    0.298739   -1.100239
H     -1.458851    0.497825   -1.988782
H     -4.212153    2.956969   -2.071370
H     -3.327859    3.270251    1.096765
H     -2.112279    3.297505    3.213110
H      0.209891    2.465944    3.342510
H      1.325982    1.575039    1.318256
H      0.156625    1.543245   -0.827010
H     -2.895315    5.090062   -1.633908
H     -1.709430    6.745002   -3.001489
H      0.190548    6.060598   -4.434763
H      0.912114    3.691870   -4.484277
H     -0.244627    2.013662   -3.140317
H     -3.585554    1.728070   -3.759580
H     -2.097538    0.848093   -4.154699
H     -4.857625   -0.255046   -3.441308
H     -3.868608   -0.577852   -4.877440
H      4.151932   -1.042910   -0.406251
H      4.408633   -0.346155    1.924532
