68

O      0.327583   -3.658000    0.548635
C      1.148115   -2.969739    1.214928
C      2.540191   -2.798973    0.666168
C      2.602661   -1.592519   -0.275091
C      4.045310   -1.301915   -0.717938
C      4.127618   -0.370039   -1.940828
C      3.674848    1.072974   -1.656601
N      2.213971    1.143361   -1.452193
C      1.474103    1.250818   -2.725103
C     -0.028945    0.994658   -2.489901
C     -0.455002    1.289537   -1.024770
C     -2.021407    1.381292   -0.848400
O     -2.599078    0.252955   -1.470943
C     -2.552064    2.649035   -1.545050
C     -2.517234    3.902648   -0.891979
C     -2.984877    5.055470   -1.528803
C     -3.493426    4.982275   -2.825871
C     -3.535751    3.755383   -3.489738
C     -3.069297    2.597465   -2.859164
C     -2.510507    1.363335    0.618765
C     -3.892885    1.530881    0.865346
C     -4.401406    1.514020    2.166605
C     -3.546245    1.311265    3.247838
C     -2.184322    1.107310    3.027846
C     -1.668323    1.109468    1.728190
C      0.331778    2.525069   -0.523796
C      1.852072    2.250230   -0.537057
C      0.708892   -2.341456    2.491140
C      1.464379   -1.326696    3.116006
C      1.044285   -0.775384    4.330207
C     -0.129410   -1.225812    4.937230
C     -0.898411   -2.214285    4.320473
C     -0.486688   -2.766812    3.103980
H      2.823389   -3.716410    0.103900
H      3.272749   -2.690118    1.494002
H      1.964755   -1.795283   -1.163274
H      2.201082   -0.704733    0.255882
H      4.615727   -0.864664    0.130593
H      4.540595   -2.258775   -0.993868
H      5.190279   -0.332159   -2.264779
H      3.556507   -0.807686   -2.785827
H      3.985322    1.730826   -2.500000
H      4.222436    1.428265   -0.754160
H      1.842484    0.512000   -3.467236
H      1.617719    2.264491   -3.166473
H     -0.259586   -0.068456   -2.727165
H     -0.594629    1.625720   -3.205011
H     -0.110090    0.407616   -0.440516
H     -2.257504   -0.561123   -1.013259
H     -2.124444    3.991679    0.113255
H     -2.947990    6.008474   -1.016233
H     -3.855254    5.876733   -3.316628
H     -3.933574    3.701339   -4.495522
H     -3.111577    1.663742   -3.405881
H     -4.581470    1.683221    0.042936
H     -5.461313    1.660705    2.335239
H     -3.939357    1.305004    4.256493
H     -1.525618    0.948661    3.869456
H     -0.612409    0.916799    1.620326
H      0.021004    2.830359    0.495209
H      0.132067    3.384493   -1.199031
H      2.387512    3.185375   -0.816710
H      2.167172    1.972547    0.492295
H      2.374893   -0.946932    2.673670
H      1.630345    0.003337    4.800452
H     -0.450732   -0.798919    5.878278
H     -1.812656   -2.557572    4.787440
H     -1.096514   -3.539971    2.652613
