74

C      3.385104    5.281275   -5.066768
C      2.993741    4.592898   -3.762539
C      2.568899    5.614631   -2.702737
C      2.202266    4.920856   -1.418295
C      3.177972    4.682527   -0.439351
C      2.847639    4.001304    0.735118
C      1.541567    3.527377    0.941695
C      1.222629    2.778949    2.179385
O      1.796499    3.098259    3.256262
C      0.304098    1.584141    2.179998
C      1.088576    0.266872    2.291860
C      2.064391    0.003590    1.127195
C      1.404088   -0.015873   -0.263850
N      0.223298   -0.906139   -0.311090
C     -0.569359   -0.645513   -1.526298
C     -1.938323   -1.339359   -1.427811
C     -1.879719   -2.741255   -0.749657
C     -2.520045   -2.777804    0.695781
O     -1.760296   -1.942548    1.543967
C     -2.475738   -4.213359    1.236295
C     -1.643960   -4.569294    2.322054
C     -1.599612   -5.888045    2.783412
C     -2.376440   -6.872753    2.171929
C     -3.199448   -6.542020    1.095225
C     -3.248410   -5.226044    0.627296
C     -3.993750   -2.322160    0.753413
C     -4.543652   -1.959913    2.002474
C     -5.885102   -1.585476    2.115925
C     -6.708184   -1.582094    0.990387
C     -6.193494   -1.961620   -0.249375
C     -4.852915   -2.339597   -0.370197
C     -0.434891   -3.299301   -0.801152
C      0.617420   -2.334612   -0.216391
C      0.563472    3.774170   -0.038467
C      0.894477    4.457130   -1.212100
H      2.527101    5.859884   -5.470602
H      4.243362    5.966178   -4.898570
H      3.682707    4.517323   -5.815668
H      2.154833    3.891464   -3.963273
H      3.861640    4.005751   -3.390982
H      1.699820    6.201303   -3.073972
H      3.398783    6.332503   -2.519369
H      4.196662    5.019029   -0.588592
H      3.620199    3.822036    1.472806
H     -0.374548    1.664905    3.056658
H     -0.347086    1.553034    1.284370
H      1.667299    0.270704    3.241377
H      0.368480   -0.573493    2.365984
H      2.862800    0.776628    1.132725
H      2.569153   -0.969921    1.303795
H      2.157636   -0.316805   -1.026234
H      1.114068    1.026415   -0.513133
H     -0.752051    0.445039   -1.653133
H     -0.023258   -1.002723   -2.429340
H     -2.340314   -1.449025   -2.458798
H     -2.639854   -0.663973   -0.894775
H     -2.464397   -3.436162   -1.389736
H     -1.947506   -0.996209    1.309615
H     -1.018752   -3.837458    2.815369
H     -0.957098   -6.147853    3.614786
H     -2.337993   -7.893300    2.530765
H     -3.799064   -7.307160    0.619304
H     -3.890021   -5.000168   -0.213944
H     -3.932442   -1.973962    2.896418
H     -6.288294   -1.304621    3.080570
H     -7.747519   -1.293564    1.079405
H     -6.837838   -1.971334   -1.119285
H     -4.508355   -2.644135   -1.346003
H     -0.358214   -4.288019   -0.302544
H     -0.178420   -3.482699   -1.868712
H      1.584520   -2.526094   -0.734412
H      0.763297   -2.590793    0.854844
H     -0.460033    3.454214    0.101771
H      0.130302    4.625200   -1.961144
