41

C     -2.538370    3.342148   -1.154352
C     -3.306309    2.011279   -1.308759
C     -3.872724    1.960308   -2.748298
C     -4.503352    1.993822   -0.333339
C     -2.363345    0.833114   -0.987321
C     -2.058806   -0.181066   -1.922972
C     -1.196837   -1.230158   -1.592850
C     -0.605624   -1.307717   -0.321053
C      0.316543   -2.434631   -0.000285
O      0.471579   -3.364243   -0.838902
C      1.112702   -2.500929    1.278966
C      2.285969   -1.509303    1.280458
C      3.345937   -1.863075    0.225200
C      4.614830   -1.001224    0.337632
C      4.394352    0.470505   -0.042094
Br     3.920793    1.551940    1.500009
C     -0.907246   -0.305388    0.616991
C     -1.768129    0.744318    0.288834
H     -1.647778    3.353571   -1.819428
H     -3.186143    4.204818   -1.422869
H     -2.195467    3.497409   -0.110114
H     -4.545188    2.825133   -2.938279
H     -4.467673    1.034997   -2.907471
H     -3.053493    2.004789   -3.498225
H     -5.219605    2.809503   -0.573261
H     -4.176396    2.138171    0.717550
H     -5.042608    1.024178   -0.401037
H     -2.475081   -0.183228   -2.919075
H     -0.989671   -1.982124   -2.344186
H      1.504275   -3.531983    1.423702
H      0.450322   -2.301649    2.146877
H      2.754093   -1.525817    2.288715
H      1.902472   -0.484750    1.097066
H      3.643132   -2.926599    0.356465
H      2.916936   -1.758721   -0.795192
H      5.046240   -1.078984    1.359119
H      5.367376   -1.426204   -0.362027
H      5.340427    0.885734   -0.449721
H      3.612974    0.572596   -0.825054
H     -0.484747   -0.318886    1.611222
H     -1.966379    1.491379    1.045283
