80

C     -2.328448    3.597341    5.149578
C     -3.105038    2.728193    4.150131
C     -2.772303    1.243071    4.344885
C     -2.899441    3.188762    2.688563
C     -1.467011    3.094580    2.214152
C     -0.588277    4.176027    2.385563
C      0.740539    4.082937    1.962262
C      1.217059    2.909649    1.349661
C      2.629801    2.834393    0.890112
O      3.476445    3.649996    1.346499
C      3.093873    1.805616   -0.104808
C      3.605965    0.542276    0.601630
C      3.825417   -0.589823   -0.406542
C      4.284584   -1.880148    0.290578
C      4.319914   -3.069539   -0.676035
N      2.950454   -3.345167   -1.160115
C      2.796954   -3.180557   -2.612450
C      1.304669   -3.011619   -2.951945
C      0.343192   -3.779969   -1.986283
C     -0.340969   -2.862114   -0.891231
O      0.706782   -2.301802   -0.125073
C     -1.168425   -1.753936   -1.586472
C     -0.682081   -0.428619   -1.700876
C     -1.449204    0.572056   -2.302038
C     -2.701382    0.268814   -2.833285
C     -3.176758   -1.042722   -2.787361
C     -2.415464   -2.047830   -2.183067
C     -1.276642   -3.655051    0.061830
C     -2.013446   -4.784296   -0.375788
C     -2.890507   -5.453815    0.481046
C     -3.072559   -5.007945    1.787606
C     -2.385913   -3.883648    2.235672
C     -1.509960   -3.204452    1.384648
C      1.088246   -5.010160   -1.392975
C      2.423608   -4.647415   -0.703698
C      0.331749    1.827063    1.185076
C     -0.995828    1.919858    1.609169
H     -2.627118    3.340661    6.188824
H     -2.552477    4.673040    4.980983
H     -1.233166    3.434763    5.048266
H     -4.186536    2.854466    4.379216
H     -3.331067    0.623189    3.612059
H     -1.683881    1.058520    4.221552
H     -3.066087    0.919514    5.366263
H     -3.552727    2.582684    2.021634
H     -3.253099    4.238574    2.587614
H     -0.930163    5.093011    2.848988
H      1.393164    4.935362    2.105388
H      3.913528    2.236012   -0.721050
H      2.264426    1.560785   -0.803384
H      2.868284    0.211085    1.364931
H      4.561541    0.772549    1.121161
H      2.868314   -0.770909   -0.939109
H      4.587828   -0.283599   -1.156024
H      3.595683   -2.124128    1.129253
H      5.302133   -1.726164    0.713263
H      5.025335   -2.847959   -1.508837
H      4.747320   -3.940204   -0.131103
H      3.339958   -2.276667   -2.968688
H      3.220461   -4.060403   -3.147450
H      1.072440   -1.930411   -2.977408
H      1.148745   -3.380693   -3.989827
H     -0.463206   -4.175316   -2.640248
H      0.371738   -1.536115    0.405368
H      0.302062   -0.160233   -1.347904
H     -1.066266    1.584538   -2.361894
H     -3.293357    1.045067   -3.300647
H     -4.135229   -1.280922   -3.226720
H     -2.808686   -3.052551   -2.190845
H     -1.928095   -5.161924   -1.381519
H     -3.435564   -6.318285    0.127749
H     -3.753700   -5.526944    2.450062
H     -2.538413   -3.530569    3.246597
H     -1.032896   -2.322709    1.782048
H      1.310163   -5.706358   -2.234240
H      0.457623   -5.587388   -0.686546
H      2.254647   -4.593928    0.394217
H      3.160124   -5.459428   -0.898805
H      0.661102    0.900186    0.744164
H     -1.655573    1.071507    1.470195
