68

C     -4.712352   -4.677296   -4.430350
C     -4.162073   -5.941020   -3.777762
C     -2.944111   -5.626246   -2.951198
C     -1.668294   -5.657698   -3.530277
C     -0.539947   -5.331723   -2.772344
C     -0.663857   -4.955662   -1.420724
C      0.555422   -4.606270   -0.636910
O      1.690509   -4.726515   -1.174043
C      0.497624   -4.076583    0.774060
C      0.054607   -2.606204    0.822901
C      1.072741   -1.667825    0.155775
N      0.717397   -0.246584    0.371766
C      1.935331    0.596049    0.268939
C      1.618414    2.075470   -0.004979
C      0.222101    2.502859    0.497288
C     -0.082244    2.673409    2.060549
O     -1.409247    3.168348    2.129404
C     -0.098675    1.329294    2.835125
C     -1.305376    0.589177    2.937283
C     -1.375666   -0.590584    3.681989
C     -0.246067   -1.074684    4.335224
C      0.958538   -0.384638    4.235568
C      1.034839    0.802239    3.501111
C      0.820837    3.726829    2.780399
C      2.236788    3.690469    2.749088
C      3.007210    4.653058    3.407298
C      2.393416    5.663404    4.140177
C      1.006466    5.699552    4.237929
C      0.229746    4.740575    3.582972
C     -0.830740    1.617006   -0.238376
C     -0.319471    0.199120   -0.584858
C     -1.951828   -4.917350   -0.849207
C     -3.078533   -5.243752   -1.609343
H     -5.002792   -3.937793   -3.653852
H     -5.610253   -4.930431   -5.032577
H     -3.948887   -4.225139   -5.099265
H     -4.950146   -6.396710   -3.139096
H     -3.908352   -6.681387   -4.568024
H     -1.547174   -5.932932   -4.571216
H      0.431158   -5.368184   -3.249964
H     -0.191721   -4.696918    1.383503
H      1.497964   -4.174092    1.251137
H     -0.941743   -2.504292    0.348328
H     -0.049409   -2.317253    1.886620
H      1.151330   -1.894632   -0.931657
H      2.065956   -1.885155    0.612108
H      2.508931    0.520904    1.214837
H      2.604235    0.232397   -0.545622
H      1.605568    2.194649   -1.113237
H      2.436628    2.755143    0.275862
H      0.100579    3.527331    0.076357
H     -1.477840    3.999920    1.588491
H     -2.216781    0.927828    2.465298
H     -2.311028   -1.130659    3.752099
H     -0.301626   -1.990359    4.909494
H      1.839163   -0.765974    4.736369
H      1.991412    1.283245    3.482221
H      2.780154    2.889779    2.287678
H      4.087904    4.599554    3.368113
H      2.993641    6.402403    4.654456
H      0.528824    6.468135    4.831886
H     -0.840497    4.804522    3.723685
H     -1.109769    2.113952   -1.194367
H     -1.777526    1.540634    0.329504
H      0.090785    0.195407   -1.621349
H     -1.191490   -0.487038   -0.574813
H     -2.104214   -4.634335    0.182124
H     -4.058562   -5.196243   -1.150156
