68

C     -3.246091    0.693974    2.374076
C     -2.407165    0.416244    3.618423
C     -0.937647    0.486015    3.299751
C     -0.249590   -0.664601    2.888904
C      1.104297   -0.595538    2.551756
C      1.790627    0.631262    2.603841
C      3.200837    0.733760    2.164192
O      3.980204    1.528993    2.758603
C      3.720846   -0.084962    1.009773
C      4.475344    0.784382   -0.013909
C      4.496425    0.134995   -1.404967
N      3.170432    0.307521   -2.038955
C      2.565567   -0.969496   -2.465140
C      1.277347   -0.755365   -3.290113
C      0.654963    0.660500   -3.129721
C     -0.076387    0.912274   -1.749630
O      0.927478    0.966331   -0.758068
C     -0.867373    2.246249   -1.695238
C     -1.167732    3.019604   -2.845571
C     -1.913091    4.197947   -2.744151
C     -2.396046    4.621740   -1.506952
C     -2.147254    3.860273   -0.367407
C     -1.401349    2.682822   -0.458990
C     -1.061177   -0.239395   -1.477288
C     -2.303974   -0.284539   -2.146528
C     -3.202986   -1.328355   -1.913381
C     -2.870679   -2.355050   -1.027726
C     -1.634252   -2.346129   -0.382509
C     -0.730476   -1.305311   -0.611702
C      1.737409    1.741717   -3.445117
C      3.177848    1.287430   -3.136689
C      1.104078    1.778411    3.032722
C     -0.251935    1.708978    3.369912
H     -2.983340   -0.017235    1.562200
H     -4.321879    0.572162    2.618285
H     -3.080669    1.733451    2.024001
H     -2.665060   -0.589604    4.015970
H     -2.662412    1.157349    4.406279
H     -0.763464   -1.615720    2.823123
H      1.611283   -1.501415    2.246325
H      4.397894   -0.875258    1.399028
H      2.871897   -0.588594    0.507101
H      5.519998    0.931940    0.338474
H      4.001056    1.788741   -0.096130
H      4.777053   -0.938793   -1.300343
H      5.305521    0.605585   -2.009876
H      3.290047   -1.561833   -3.068168
H      2.311882   -1.568125   -1.565337
H      1.539037   -0.884672   -4.364518
H      0.542502   -1.557767   -3.070891
H     -0.119033    0.705348   -3.925735
H      0.515625    0.931861    0.140438
H     -0.832860    2.741468   -3.831994
H     -2.124141    4.779898   -3.632566
H     -2.975231    5.533261   -1.434734
H     -2.538086    4.177207    0.591638
H     -1.262069    2.108191    0.445059
H     -2.579800    0.489868   -2.851030
H     -4.157105   -1.343859   -2.423496
H     -3.569205   -3.161332   -0.847918
H     -1.370748   -3.151390    0.290882
H      0.231741   -1.348185   -0.120909
H      1.538441    2.675623   -2.878154
H      1.680067    2.010504   -4.522844
H      3.778233    2.182964   -2.861865
H      3.634296    0.838364   -4.046960
H      1.609114    2.735895    3.074430
H     -0.770259    2.609260    3.674072
