77

C      8.058750    1.758124   -2.667445
C      8.482737    2.401029   -1.346281
C      7.560167    2.012039   -0.182320
C      6.164895    2.557044   -0.359667
C      5.124264    1.721743   -0.793260
C      3.835305    2.231082   -0.974244
C      3.566522    3.589252   -0.728760
C      2.211390    4.154819   -0.932065
O      2.097871    5.348353   -1.327521
C      0.961834    3.342604   -0.698464
C     -0.020501    4.099977    0.208322
C     -1.264880    3.270208    0.563155
C     -2.225152    3.102427   -0.628030
C     -3.555599    2.477659   -0.190581
N     -3.334723    1.101008    0.302078
C     -3.489577    0.100290   -0.770556
C     -2.902342   -1.246798   -0.312261
C     -2.996798   -1.451943    1.227320
C     -2.840494   -2.948730    1.725192
O     -3.079985   -2.927993    3.118465
C     -1.364102   -3.391156    1.498865
C     -0.817599   -3.539164    0.201226
C      0.526358   -3.870294    0.011190
C      1.366380   -4.046565    1.108369
C      0.864973   -3.887907    2.398132
C     -0.478263   -3.551958    2.594485
C     -3.904370   -3.900165    1.101111
C     -3.593469   -4.981834    0.238657
C     -4.599654   -5.809677   -0.274631
C     -5.930350   -5.606548    0.082686
C     -6.256247   -4.597366    0.985729
C     -5.255876   -3.773644    1.508814
C     -4.260838   -0.726201    1.757010
C     -4.217911    0.786062    1.445590
C      4.616117    4.427177   -0.312931
C      5.902755    3.915401   -0.126801
H      8.806088    1.999722   -3.453564
H      7.069027    2.145672   -2.992274
H      8.005356    0.655096   -2.559567
H      9.515562    2.065760   -1.105928
H      8.505839    3.506308   -1.462753
H      7.986728    2.414711    0.762583
H      7.540950    0.904757   -0.077087
H      5.311771    0.674793   -0.998400
H      3.060601    1.565041   -1.333478
H      1.212829    2.376383   -0.212568
H      0.492182    3.130731   -1.682357
H      0.500775    4.358583    1.157243
H     -0.330439    5.053398   -0.273435
H     -0.956019    2.274162    0.948277
H     -1.799269    3.796739    1.383053
H     -2.436344    4.097737   -1.077585
H     -1.751489    2.468248   -1.408606
H     -3.993658    3.126767    0.603178
H     -4.274178    2.494793   -1.041779
H     -4.565019   -0.023563   -1.032495
H     -2.959101    0.421451   -1.693208
H     -3.422500   -2.063050   -0.855683
H     -1.833303   -1.242242   -0.608689
H     -2.138206   -0.896458    1.672918
H     -3.097366   -3.867397    3.443919
H     -1.429846   -3.432465   -0.681388
H      0.915987   -3.991187   -0.991521
H      2.406552   -4.305248    0.957567
H      1.521839   -4.017122    3.249283
H     -0.805445   -3.409138    3.613920
H     -2.588119   -5.251186   -0.021469
H     -4.339248   -6.622336   -0.941427
H     -6.704294   -6.250756   -0.317252
H     -7.284597   -4.469977    1.301328
H     -5.540803   -3.061766    2.268777
H     -5.159506   -1.135943    1.251670
H     -4.378630   -0.859324    2.853135
H     -3.836656    1.321627    2.342004
H     -5.254909    1.141281    1.250555
H      4.437342    5.478091   -0.122015
H      6.696589    4.577380    0.196894
