71

C      2.840146   -1.809692    4.371635
C      2.186753   -1.676415    2.999823
C      1.388028   -0.404105    2.912281
C      0.037964   -0.388907    3.288492
C     -0.697628    0.797547    3.230920
C     -0.098327    1.994983    2.793515
C     -0.915079    3.234742    2.688839
O     -2.049779    3.264318    3.241161
C     -0.391611    4.481886    2.008963
C     -1.496942    5.432543    1.499975
C     -1.886777    5.207283    0.028197
C     -2.554298    3.845571   -0.250209
N     -1.551107    2.774586   -0.454038
C     -2.146547    1.454465   -0.158112
C     -1.095339    0.342338   -0.282678
C     -0.448884    0.330580   -1.685957
C      0.665207   -0.780365   -1.804167
O      1.661772   -0.499002   -0.839060
C      1.320387   -0.879238   -3.197564
C      2.599629   -1.466261   -3.312773
C      3.206832   -1.627168   -4.560966
C      2.540818   -1.230284   -5.719810
C      1.260420   -0.684002   -5.633562
C      0.646030   -0.521862   -4.388401
C      0.055417   -2.156273   -1.501190
C      0.495032   -2.933695   -0.405501
C     -0.081164   -4.178045   -0.136171
C     -1.099883   -4.671181   -0.951876
C     -1.544061   -3.921752   -2.041434
C     -0.973833   -2.675799   -2.316404
C      0.078381    1.752142   -1.998149
C     -1.042636    2.782550   -1.844329
C      1.269459    1.979047    2.454918
C      2.002413    0.790647    2.512431
H      3.423102   -2.753517    4.415649
H      2.063604   -1.833127    5.166559
H      3.529282   -0.957282    4.555341
H      1.529242   -2.555282    2.821674
H      2.975141   -1.687311    2.214938
H     -0.448028   -1.298685    3.618913
H     -1.744576    0.770687    3.505816
H      0.269075    4.214045    1.157671
H      0.230079    5.025868    2.752176
H     -2.401774    5.407996    2.143840
H     -1.104712    6.470776    1.573443
H     -0.997374    5.365826   -0.615426
H     -2.614230    6.002615   -0.245818
H     -3.213081    3.938066   -1.144328
H     -3.228343    3.611844    0.605000
H     -2.531703    1.435900    0.884798
H     -3.001576    1.243632   -0.841050
H     -1.591750   -0.628868   -0.073740
H     -0.309524    0.496098    0.481180
H     -1.269147    0.106951   -2.400558
H      2.227762    0.247413   -1.167320
H      3.130171   -1.807973   -2.432895
H      4.192395   -2.069327   -4.629540
H      3.011082   -1.358395   -6.686313
H      0.737602   -0.392173   -6.535216
H     -0.354127   -0.117569   -4.376085
H      1.283168   -2.589132    0.249195
H      0.264756   -4.761683    0.707507
H     -1.543546   -5.635553   -0.740710
H     -2.333261   -4.306494   -2.674824
H     -1.340077   -2.119265   -3.168045
H      0.895057    2.032628   -1.299362
H      0.475687    1.809731   -3.032216
H     -0.621808    3.775771   -2.104428
H     -1.858188    2.561618   -2.571841
H      1.785394    2.879770    2.153668
H      3.051988    0.801715    2.245889
