77

C     -4.859360   -6.622461   -0.757686
C     -3.583192   -6.826717   -1.587860
C     -3.169660   -8.303226   -1.559865
C     -2.425883   -5.940677   -1.078522
C     -2.708145   -4.472192   -1.275766
C     -2.582833   -3.895458   -2.548343
C     -2.869224   -2.541337   -2.743152
C     -3.284962   -1.738382   -1.665768
C     -3.600266   -0.302592   -1.853809
O     -4.494567    0.228261   -1.139435
C     -2.880442    0.547993   -2.869727
C     -2.314772    1.813062   -2.214737
C     -1.465829    2.626005   -3.205180
C     -0.889499    3.891985   -2.553323
N     -0.104702    3.540959   -1.350289
C      1.296953    3.237889   -1.686275
C      1.986398    2.584995   -0.489194
C      1.801153    3.395149    0.828573
C      2.225104    2.604135    2.133167
O      2.152318    3.475940    3.247065
C      1.339516    1.394578    2.523026
C      0.246971    0.903605    1.764151
C     -0.484726   -0.207602    2.193740
C     -0.153017   -0.851613    3.383992
C      0.911729   -0.385083    4.152179
C      1.647887    0.724637    3.729570
C      3.683853    2.131234    1.964930
C      3.978627    0.866195    1.403324
C      5.300825    0.455634    1.214286
C      6.353722    1.301467    1.560986
C      6.086757    2.564758    2.088082
C      4.766452    2.983030    2.280160
C      0.418120    4.093168    0.982775
C     -0.140253    4.612989   -0.342379
C     -3.425650   -2.323790   -0.395742
C     -3.137303   -3.677621   -0.201791
H     -5.664388   -7.299324   -1.116371
H     -5.227020   -5.579964   -0.859816
H     -4.666415   -6.833611    0.316093
H     -3.806410   -6.560280   -2.644915
H     -2.940596   -8.626367   -0.521345
H     -2.270107   -8.462706   -2.192446
H     -3.987398   -8.939434   -1.961702
H     -2.227869   -6.157376   -0.005393
H     -1.494399   -6.194167   -1.631137
H     -2.272018   -4.498719   -3.392875
H     -2.791541   -2.134366   -3.742869
H     -2.037778   -0.016289   -3.321618
H     -3.590395    0.826296   -3.677678
H     -1.687142    1.511960   -1.346528
H     -3.150504    2.446339   -1.842418
H     -0.638771    1.995035   -3.594989
H     -2.096948    2.926891   -4.069897
H     -0.269239    4.447260   -3.293178
H     -1.749287    4.551260   -2.297486
H      1.351792    2.527163   -2.538767
H      1.846959    4.159870   -1.985391
H      1.639158    1.539964   -0.404213
H      3.071196    2.519033   -0.723496
H      2.522012    4.239083    0.721465
H      2.458872    4.384171    2.991798
H     -0.077615    1.359211    0.845625
H     -1.316111   -0.568180    1.600665
H     -0.723433   -1.710982    3.711949
H      1.169415   -0.884251    5.077505
H      2.473292    1.061419    4.345197
H      3.186884    0.192787    1.102314
H      5.508605   -0.518571    0.790774
H      7.377040    0.981530    1.411827
H      6.905187    3.225881    2.342934
H      4.606015    3.977058    2.671547
H     -0.336755    3.434536    1.449305
H      0.521272    4.959295    1.671812
H     -1.187710    4.937727   -0.155284
H      0.435711    5.503969   -0.681706
H     -3.749750   -1.730664    0.450532
H     -3.254222   -4.107018    0.785405
