74

C      0.067140   -7.881705   -0.829893
C     -0.835697   -6.867677   -1.540117
C     -0.303788   -6.538952   -2.940731
C     -1.006672   -5.617341   -0.697131
C      0.062075   -4.726239   -0.488812
C     -0.114626   -3.575059    0.283512
C     -1.359650   -3.291353    0.865482
C     -1.540959   -2.039933    1.636758
O     -0.572172   -1.590100    2.304734
C     -2.848616   -1.288736    1.675227
C     -3.484912   -1.056971    0.290985
C     -2.550769   -0.439922   -0.766432
C     -2.101378    0.993553   -0.435476
N     -0.942028    1.004881    0.487397
C     -0.919370    2.270029    1.249862
C      0.266211    2.320637    2.235079
C      1.635343    2.058953    1.554052
C      2.350538    3.385703    0.997214
O      2.703418    4.120245    2.157933
C      1.392307    4.314202    0.202638
C      1.185150    4.213402   -1.194555
C      0.274383    5.042074   -1.856534
C     -0.440379    6.006166   -1.153396
C     -0.248775    6.144391    0.217642
C      0.654766    5.316295    0.888670
C      3.669410    3.141759    0.193707
C      4.849342    3.859582    0.526759
C      6.041778    3.672882   -0.177724
C      6.089532    2.793551   -1.254599
C      4.938908    2.115855   -1.642726
C      3.743425    2.297276   -0.942053
C      1.505011    0.778575    0.700552
C      0.323227    0.842081   -0.265139
C     -2.415348   -4.201544    0.694490
C     -2.240094   -5.350423   -0.081150
H      0.158387   -8.804664   -1.440683
H     -0.376303   -8.159832    0.151322
H      1.082776   -7.463658   -0.656953
H     -1.826810   -7.354636   -1.678765
H     -0.362093   -7.440488   -3.587554
H     -0.913216   -5.732605   -3.405865
H      0.757132   -6.209493   -2.899086
H      1.032793   -4.915387   -0.926683
H      0.718410   -2.892944    0.408757
H     -2.696762   -0.304826    2.168667
H     -3.564568   -1.853938    2.309595
H     -4.374038   -0.402195    0.417833
H     -3.866020   -2.020909   -0.105940
H     -1.684756   -1.105085   -0.950246
H     -3.117818   -0.403258   -1.722355
H     -2.973550    1.534489   -0.001112
H     -1.854658    1.527232   -1.382378
H     -1.850276    2.355956    1.851018
H     -0.902291    3.133746    0.557592
H      0.096638    1.532426    3.003009
H      0.266983    3.285921    2.782353
H      2.296714    1.711007    2.380693
H      3.318432    3.579010    2.720086
H      1.699633    3.503222   -1.806359
H      0.124895    4.934481   -2.922462
H     -1.145872    6.643295   -1.671673
H     -0.808299    6.892025    0.766102
H      0.753446    5.459123    1.955640
H      4.869492    4.581431    1.330776
H      6.929332    4.219481    0.109555
H      7.012618    2.653384   -1.801675
H      4.966084    1.457985   -2.502402
H      2.881145    1.790020   -1.338572
H      1.300346   -0.066045    1.394302
H      2.447174    0.460687    0.225970
H      0.312986   -0.108051   -0.836890
H      0.462489    1.662731   -0.994732
H     -3.374717   -4.028022    1.162544
H     -3.074479   -6.029278   -0.205405
