54

C      4.366952   -3.176123    2.702040
C      3.863911   -1.901537    3.395951
C      4.755202   -1.573865    4.600119
C      2.393530   -2.040684    3.845517
C      1.451946   -2.164332    2.673711
C      1.101698   -1.030386    1.928146
C      0.248526   -1.142411    0.827399
C     -0.272182   -2.394911    0.445545
C     -1.181921   -2.541380   -0.726110
O     -1.515245   -3.695414   -1.111365
C     -1.703283   -1.361221   -1.502061
C     -0.690948   -0.923464   -2.571215
C     -1.164056    0.313309   -3.359108
C     -0.673611    1.640153   -2.755903
N     -1.196961    1.839427   -1.385577
C     -2.562189    2.412297   -1.348022
C     -2.593520    3.920481   -1.660585
C     -1.609686    4.703601   -0.779425
O     -2.048284    4.714405    0.555399
C     -0.214034    4.077189   -0.857739
C     -0.264810    2.582171   -0.511849
C      0.091089   -3.529847    1.195552
C      0.944341   -3.415660    2.296485
H      4.261814   -4.055678    3.372947
H      5.436341   -3.064724    2.422424
H      3.794089   -3.362830    1.769665
H      3.944517   -1.056195    2.676700
H      4.712565   -2.390211    5.353112
H      5.808903   -1.440956    4.273904
H      4.422870   -0.627367    5.077552
H      2.286379   -2.916546    4.523500
H      2.100057   -1.144574    4.435804
H      1.493684   -0.057239    2.197781
H      0.013161   -0.244076    0.277954
H     -1.952437   -0.534083   -0.808862
H     -2.654352   -1.648863   -2.001937
H      0.303784   -0.731258   -2.113273
H     -0.561568   -1.765511   -3.286709
H     -2.269245    0.314262   -3.468915
H     -0.748482    0.245813   -4.388368
H     -0.968443    2.472170   -3.428489
H      0.439229    1.618337   -2.759982
H     -2.991731    2.244870   -0.336164
H     -3.229024    1.879805   -2.058301
H     -3.624053    4.303785   -1.497499
H     -2.353134    4.096822   -2.729854
H     -1.540542    5.750532   -1.156577
H     -2.803197    5.357473    0.604041
H      0.466487    4.596362   -0.148566
H      0.200062    4.211333   -1.880738
H      0.757769    2.149902   -0.575010
H     -0.583230    2.458290    0.546501
H     -0.284908   -4.510721    0.932918
H      1.213045   -4.305731    2.851939
