71

C     -2.263398    1.257773   -4.915012
C     -1.395350    0.008747   -4.706525
C     -2.117635   -1.038838   -3.845790
C     -0.044085    0.360187   -4.105684
C      0.060210    1.069029   -2.891199
C      1.313394    1.371424   -2.347792
C      2.500987    0.944791   -2.986705
C      3.857534    1.200266   -2.411314
O      4.878250    0.849421   -3.069013
C      4.084314    1.809947   -1.047887
C      4.205454    0.738133    0.049200
C      2.878093    0.032991    0.331467
N      3.021828   -0.868893    1.500136
C      2.484251   -2.240539    1.293632
C      1.056106   -2.447166    1.857863
C      0.266546   -1.125612    1.842687
C     -1.280383   -1.312822    2.111599
O     -1.771107   -2.296628    1.224407
C     -1.501072   -1.817985    3.552731
C     -1.683196   -0.919601    4.631023
C     -1.893494   -1.392186    5.929807
C     -1.917684   -2.764005    6.179623
C     -1.718479   -3.666003    5.133901
C     -1.504731   -3.200766    3.834836
C     -2.131477   -0.047356    1.843949
C     -1.667279    1.064402    1.099565
C     -2.511023    2.147424    0.826162
C     -3.837033    2.131151    1.252551
C     -4.329889    1.026028    1.942792
C     -3.494619   -0.060209    2.217141
C      0.984648   -0.124064    2.790941
C      2.528570   -0.250306    2.747918
C      2.387322    0.235173   -4.200041
C      1.133672   -0.054170   -4.750620
H     -3.168236    0.995521   -5.506217
H     -2.591597    1.685797   -3.944272
H     -1.698385    2.030068   -5.479582
H     -1.240801   -0.442984   -5.715988
H     -2.330833   -0.643620   -2.827551
H     -3.079472   -1.332863   -4.326173
H     -1.488108   -1.949417   -3.752084
H     -0.826492    1.394613   -2.361639
H      1.330805    1.927537   -1.421988
H      3.310321    2.561490   -0.789335
H      5.040571    2.377059   -1.074342
H      4.969285   -0.014831   -0.238622
H      4.555738    1.233009    0.980260
H      2.101392    0.804823    0.510001
H      2.574036   -0.518802   -0.581672
H      3.167611   -2.964308    1.794919
H      2.498277   -2.525563    0.215993
H      0.542025   -3.231749    1.258724
H      1.133583   -2.822601    2.903944
H      0.357045   -0.755935    0.801377
H     -1.633169   -1.973701    0.295327
H     -1.660891    0.149476    4.466585
H     -2.036272   -0.694831    6.745281
H     -2.090014   -3.128812    7.185177
H     -1.733904   -4.730263    5.329642
H     -1.352823   -3.925754    3.047564
H     -0.664957    1.122836    0.708851
H     -2.136578    3.002813    0.277661
H     -4.487205    2.970978    1.039603
H     -5.365229    1.007171    2.259633
H     -3.916326   -0.917198    2.728136
H      0.688001   -0.301203    3.841619
H      0.697467    0.915433    2.541590
H      2.867382   -0.871807    3.605995
H      2.993687    0.750141    2.890452
H      3.270178   -0.113316   -4.725631
H      1.087555   -0.608177   -5.683173
