56

C     -3.643149    2.866399   -3.093674
O     -3.892594    2.109858   -1.916402
C     -3.500931    2.541033   -0.646014
O     -2.940776    3.661398   -0.491024
C     -3.749702    1.664725    0.542838
C     -2.732961    0.508686    0.712272
N     -1.401969    1.017605    1.091528
C     -0.450094    1.642455    0.215372
O     -0.722719    1.850211   -0.997458
O      0.801113    2.004359    0.720920
C      1.772642    2.695416   -0.061371
C      3.042169    2.888872    0.720954
C      3.003835    3.176240    2.096643
C      4.191104    3.372314    2.809313
C      5.422055    3.305780    2.151947
C      5.467736    3.052499    0.778501
C      4.282998    2.856215    0.062889
C     -2.670312   -0.493649   -0.478354
C     -4.037192   -1.066905   -0.811446
C     -4.576732   -1.036539   -2.211492
O     -4.717879   -1.571919    0.069537
C     -1.693923   -1.602424   -0.173385
O     -2.084486   -2.674112    0.368980
O     -0.333707   -1.390838   -0.415596
C      0.667965   -2.336532   -0.061129
C      2.020163   -1.710663   -0.232547
C      2.649823   -1.718337   -1.487612
C      3.900675   -1.114517   -1.650683
C      4.526005   -0.494537   -0.565622
C      3.895563   -0.465093    0.681111
C      2.641073   -1.059448    0.845974
H     -4.156286    3.849189   -3.029553
H     -4.033122    2.311914   -3.972098
H     -2.551124    3.021562   -3.220611
H     -4.776946    1.249736    0.461815
H     -3.737079    2.287864    1.463763
H     -3.108578   -0.073121    1.585684
H     -1.094980    0.858878    2.077788
H      1.375274    3.690752   -0.353859
H      1.980707    2.107787   -0.982672
H      2.057716    3.244206    2.619448
H      4.156314    3.580683    3.870742
H      6.339851    3.455927    2.705744
H      6.420720    3.009584    0.268536
H      4.335316    2.665267   -1.002674
H     -2.290792    0.032484   -1.375961
H     -3.842063   -0.606489   -2.923336
H     -5.500232   -0.421368   -2.236897
H     -4.819374   -2.069383   -2.538308
H      0.530979   -2.654492    0.995690
H      0.574583   -3.237417   -0.705679
H      2.173796   -2.192378   -2.337326
H      4.384956   -1.126355   -2.618635
H      5.493415   -0.026892   -0.693656
H      4.374250    0.028453    1.517138
H      2.157244   -1.015687    1.814139
