56

C     -2.223979    5.716931   -3.633223
O     -2.395788    4.892991   -2.486401
C     -2.713785    3.535920   -2.574344
O     -2.837342    2.977158   -3.698247
C     -2.874795    2.731530   -1.319005
C     -1.552544    2.095939   -0.835509
N     -1.041475    1.173666   -1.857505
C     -1.150280   -0.249316   -1.753630
O     -1.821798   -0.772684   -0.822630
O     -0.497820   -1.052930   -2.695163
C     -0.457533   -2.477632   -2.616471
C      0.411472   -2.922779   -1.467704
C     -0.097054   -3.785832   -0.480027
C      0.722983   -4.208382    0.572771
C      2.049987   -3.774553    0.647094
C      2.561970   -2.917080   -0.332025
C      1.748529   -2.494221   -1.388179
C     -0.462813    3.142594   -0.471723
C     -0.916023    4.066162    0.639279
C     -0.930764    5.555490    0.457498
O     -1.282085    3.599085    1.707431
C      0.811334    2.459050   -0.054702
O      1.900813    2.769232   -0.611218
O      0.778099    1.481495    0.944514
C      1.914188    0.696025    1.289430
C      1.545247   -0.269554    2.379443
C      0.464267   -1.149176    2.202402
C      0.129928   -2.066477    3.203070
C      0.875892   -2.117108    4.383829
C      1.956993   -1.248956    4.566437
C      2.293402   -0.328193    3.568859
H     -1.385720    5.332146   -4.253859
H     -1.991314    6.753279   -3.308172
H     -3.158335    5.730541   -4.232905
H     -3.618279    1.924395   -1.499400
H     -3.297661    3.381741   -0.523933
H     -1.791432    1.525250    0.089800
H     -0.571792    1.565469   -2.703781
H     -0.027260   -2.873150   -3.560815
H     -1.492663   -2.877778   -2.529090
H     -1.124665   -4.127857   -0.521605
H      0.326872   -4.866605    1.335319
H      2.679047   -4.098373    1.465746
H      3.587961   -2.583273   -0.273902
H      2.157479   -1.834872   -2.144138
H     -0.239807    3.740902   -1.381987
H     -1.973878    5.927123    0.531461
H     -0.518432    5.849454   -0.528900
H     -0.319029    6.032215    1.250202
H      2.254645    0.121942    0.400070
H      2.740244    1.366909    1.614580
H     -0.110700   -1.129718    1.286799
H     -0.700179   -2.744753    3.058809
H      0.618512   -2.831412    5.155117
H      2.536075   -1.292208    5.479006
H      3.135260    0.334575    3.723841
