58

C      2.716104    1.926488    0.873427
C      3.197914    0.497876    1.102235
N      2.373664    0.353976    2.328060
C      1.125358   -0.443238    2.201013
C      0.288916   -0.268588    0.907391
C     -1.043424   -0.964548    0.998897
C     -1.334634   -2.162464    1.652802
N     -2.618051   -2.518881    1.422241
S     -3.400589   -3.947812    2.015040
O     -2.468810   -4.702438    2.921555
O     -4.621003   -3.545208    2.794495
C     -3.843947   -4.979234    0.660095
C     -2.945798   -5.161888   -0.400546
C     -3.286683   -5.990563   -1.475159
C     -4.524493   -6.637063   -1.496569
C     -5.424014   -6.456440   -0.441465
C     -5.085495   -5.629734    0.635283
C     -3.140459   -1.582332    0.608360
C     -4.424087   -1.538305    0.058461
C     -4.734040   -0.473696   -0.805204
C     -3.767435    0.510540   -1.103109
C     -2.481792    0.441146   -0.538900
C     -2.202391   -0.621716    0.321730
C      2.210029    1.809667    2.293929
C      0.955660    2.604945    2.385467
C      1.055126    3.869694    1.903413
C      2.332087    4.401537    1.180889
O      2.927004    5.345732    2.038991
C      1.853085    5.071701   -0.104119
C      1.733827    6.563479   -0.249147
O      1.509810    4.374490   -1.049330
C      3.415160    3.277676    0.829618
H      1.916260    1.903776    0.099278
H      4.282337    0.465936    1.351396
H      2.944736   -0.210794    0.287256
H      1.408123   -1.514177    2.286475
H      0.481803   -0.220879    3.080538
H      0.088252    0.798457    0.717377
H      0.820925   -0.691937    0.033717
H     -0.644197   -2.746969    2.246321
H     -1.983205   -4.667766   -0.392756
H     -2.589900   -6.131557   -2.292004
H     -4.786999   -7.278623   -2.329016
H     -6.382631   -6.957864   -0.457431
H     -5.790836   -5.502491    1.448039
H     -5.160529   -2.299041    0.279397
H     -5.718744   -0.411566   -1.248807
H     -4.015714    1.322373   -1.773703
H     -1.736865    1.189657   -0.773697
H      2.917477    2.224465    3.055061
H      0.054384    2.237288    2.864571
H      0.203178    4.534416    2.015691
H      3.742591    5.691418    1.589425
H      1.903062    7.096980    0.707296
H      2.472811    6.918957   -0.993303
H      0.714445    6.819586   -0.606275
H      3.856909    3.434023   -0.178509
H      4.262174    3.296712    1.552058
