94

C     -2.030027    1.922232   -1.502552
C     -1.025112    2.902694   -0.836633
O     -1.271131    4.227338   -1.241831
C     -0.967294    2.813152    0.637830
C     -0.863963    2.781212    1.839202
C     -0.680369    2.788531    3.296407
C     -1.462902    1.664945    3.991196
C     -1.004434    0.250625    3.602349
C      0.444877   -0.003324    3.885172
O      0.917199    0.230021    5.032268
O      1.250451   -0.545205    2.877674
C      2.628939   -0.831325    3.069466
C     -3.425628    2.102189   -1.015073
O     -4.072282    3.120482   -1.203001
C     -4.003616    0.912309   -0.353431
C     -2.867210   -0.115690   -0.325484
O     -3.321741   -1.375859   -0.779119
Si    -3.931237   -2.386693    0.504319
C     -4.478987   -1.455339    2.042113
C     -5.463685   -3.230255   -0.159124
C     -2.614939   -3.691125    0.941219
C     -1.338265   -2.989814    1.432947
C     -2.290308   -4.519196   -0.313956
C     -3.145678   -4.622930    2.046008
C     -1.767284    0.408010   -1.283771
C     -0.379656    0.061506   -0.776948
C      0.627321   -0.265356   -1.603473
C      1.971645   -0.683617   -1.054683
C      2.819778    0.533454   -0.608815
C      3.614323    1.239245   -1.733410
C      2.793725    2.248329   -2.553062
C      2.673621    3.607634   -1.846299
C      1.900420    4.606785   -2.702976
O      2.672857   -1.430993   -2.037106
C      2.630069   -2.819802   -1.771972
C      3.564541   -3.539266   -2.765578
C      3.085997   -4.969470   -3.063428
C      2.343719   -5.555593   -1.862424
C      1.188456   -4.623354   -1.429939
O      1.304956   -3.299667   -1.930763
H     -2.016523    2.123593   -2.597355
H     -0.017613    2.641257   -1.210655
H     -2.059771    4.564251   -0.742386
H      0.403710    2.708247    3.525112
H     -1.034866    3.767432    3.686100
H     -2.543818    1.768617    3.749514
H     -1.361355    1.788380    5.091075
H     -1.193501    0.088656    2.525520
H     -1.610465   -0.492426    4.163534
H      2.755633   -1.543164    3.911743
H      3.185216    0.106534    3.283218
H      3.037084   -1.292659    2.147025
H     -4.872726    0.544538   -0.940750
H     -4.324895    1.178907    0.674595
H     -2.448663   -0.152855    0.700282
H     -3.623401   -0.943093    2.522924
H     -4.913753   -2.172533    2.767179
H     -5.259488   -0.718452    1.770352
H     -5.872826   -3.926656    0.601738
H     -6.225901   -2.459333   -0.396396
H     -5.214608   -3.790270   -1.084460
H     -1.548799   -2.382269    2.338392
H     -0.558307   -3.737775    1.695716
H     -0.925827   -2.326611    0.644818
H     -1.915841   -3.863385   -1.129356
H     -3.189365   -5.057453   -0.680155
H     -1.511951   -5.278770   -0.085851
H     -2.385432   -5.389666    2.306202
H     -3.381318   -4.050112    2.968864
H     -4.065041   -5.150841    1.710096
H     -1.913895   -0.094602   -2.269406
H     -0.187645    0.097726    0.291847
H      0.454239   -0.317232   -2.675203
H      1.775283   -1.276899   -0.126191
H      3.568323    0.156567    0.122714
H      2.190833    1.263002   -0.053691
H      4.064137    0.492972   -2.420949
H      4.479200    1.766810   -1.274727
H      1.787409    1.842177   -2.781926
H      3.313495    2.405880   -3.524985
H      2.159588    3.489408   -0.870376
H      3.687838    4.020846   -1.653639
H      2.442969    4.800467   -3.652573
H      0.887997    4.218140   -2.937778
H      1.795029    5.564420   -2.151603
H      3.012689   -3.020982   -0.738801
H      4.590652   -3.569402   -2.339706
H      3.615372   -2.978476   -3.725021
H      2.396343   -4.954076   -3.936409
H      3.953804   -5.612885   -3.325412
H      3.058033   -5.674877   -1.018891
H      1.945972   -6.561883   -2.116657
H      0.240594   -5.046713   -1.821372
H      1.105639   -4.601107   -0.321290
