36

C     -1.259982    1.277424   -0.506212
C     -0.945551    2.004501    0.834518
C     -0.662861    1.053971    1.992632
C      0.493527    0.081724    1.687981
C      0.686109   -0.252693    0.178366
O      1.580758    0.696739   -0.371145
C      2.801415    0.044203   -0.504878
C      2.502508   -1.421755   -0.461415
O      1.227788   -1.557135    0.083338
C     -0.669967   -0.190225   -0.613530
C     -0.395404   -0.502227   -2.111305
C     -1.648198   -1.296585   -0.066912
C     -3.102667   -1.131901   -0.512554
C     -3.541610    0.272148   -0.263025
O     -4.525591    0.511519    0.420081
C     -2.755416    1.375059   -0.889691
H     -0.739674    1.898206   -1.271975
H     -1.769084    2.689502    1.130323
H     -0.047203    2.647833    0.699180
H     -0.404354    1.650555    2.894514
H     -1.591827    0.501925    2.244065
H      0.319603   -0.852621    2.265568
H      1.438570    0.511915    2.087156
H      3.277283    0.325635   -1.468352
H      3.468461    0.334835    0.335953
H      3.242512   -1.960232    0.168282
H      2.508936   -1.851727   -1.486305
H      0.337796    0.210660   -2.544789
H     -1.324524   -0.431069   -2.712927
H      0.011778   -1.527615   -2.239464
H     -1.647780   -1.339938    1.037723
H     -1.300402   -2.302547   -0.389528
H     -3.202375   -1.362234   -1.594266
H     -3.745932   -1.845039    0.048249
H     -3.179583    2.365747   -0.615889
H     -2.858658    1.285126   -1.992504
