36

C     -1.322316    0.011534    0.876593
C     -1.453486    0.323933   -0.642150
C     -0.142889    0.274541   -1.384131
C      0.916232   -0.430600   -0.955657
C      2.197826   -0.399629   -1.742394
C      0.869910   -1.142228    0.344106
O      1.916707   -1.688984    0.789223
C     -0.446411   -1.286409    1.089152
C     -1.164341   -2.526479    0.500674
C     -0.225416   -1.571330    2.600958
C      0.189971   -0.336312    3.325286
O      1.222858   -0.303255    3.976720
C     -0.703939    0.855112    3.234149
C     -0.903364    1.274518    1.754927
C      0.391341    1.968341    1.261408
C     -2.035287    2.334026    1.740525
H     -2.348227   -0.255287    1.219582
H     -2.139185   -0.411570   -1.112406
H     -1.924613    1.309315   -0.817235
H     -0.084505    0.813897   -2.322243
H      2.712587   -1.381441   -1.680505
H      2.864184    0.386357   -1.329563
H      2.009536   -0.186456   -2.816693
H     -2.185176   -2.632590    0.926740
H     -0.595377   -3.452990    0.734140
H     -1.252026   -2.468344   -0.604425
H     -1.176886   -1.918939    3.061089
H      0.519427   -2.383152    2.756148
H     -0.286477    1.694442    3.834739
H     -1.681985    0.580972    3.688329
H      1.263846    1.287071    1.300798
H      0.632392    2.841169    1.906188
H      0.275493    2.355970    0.228825
H     -3.013837    1.875095    1.998386
H     -1.830529    3.136420    2.482734
H     -2.128138    2.830734    0.753732
