41

C      0.383938    0.109330   -0.952630
C      0.608896   -1.069647   -1.908957
C     -0.203373   -2.248458   -1.368141
C     -0.921109   -1.757006   -0.101487
C     -2.385537   -1.470374   -0.408013
C     -3.484250   -2.075051    0.415689
O     -2.684788   -0.738043   -1.340311
C     -0.111473   -0.513130    0.367848
C     -0.964544    0.490292    1.188281
C      1.099043   -0.994669    1.220568
C      2.100656    0.122174    1.527541
C      2.457492    0.935642    0.310829
C      3.605397    1.743284    0.356489
C      3.951764    2.565577   -0.720043
O      5.115303    3.342648   -0.617584
C      5.586491    4.222768   -1.632892
C      3.128448    2.588087   -1.858332
C      1.977281    1.800631   -1.909195
C      1.622751    0.976520   -0.828796
H     -0.433464    0.736458   -1.377333
H      0.277220   -0.802900   -2.936388
H      1.684895   -1.352782   -1.950246
H     -0.908564   -2.632071   -2.138965
H      0.484965   -3.082148   -1.105371
H     -0.874619   -2.556536    0.671713
H     -4.125652   -2.709983   -0.230550
H     -4.102190   -1.265785    0.857977
H     -3.080705   -2.699014    1.239913
H     -0.367516    1.376807    1.483637
H     -1.822628    0.877826    0.601289
H     -1.357046    0.001243    2.105266
H      0.739230   -1.426942    2.180185
H      1.646631   -1.803899    0.688800
H      1.691438    0.796883    2.308598
H      3.020289   -0.341319    1.947451
H      4.235657    1.737074    1.237917
H      5.802797    3.653436   -2.561493
H      4.831465    5.011664   -1.834911
H      6.522503    4.707135   -1.287036
H      3.368424    3.210728   -2.709299
H      1.358730    1.829898   -2.798036
