41

C      0.296817   -0.802911   -0.547266
C      1.798656   -0.936035   -0.803169
C      2.224403   -2.282033   -0.216861
C      1.028616   -2.828796    0.587625
C      0.455007   -4.064607   -0.097757
C      0.309270   -5.366644    0.638418
O      0.102437   -4.005832   -1.267680
C      0.023103   -1.641703    0.715691
C     -1.460562   -2.094846    0.785846
C      0.376221   -0.818205    1.988312
C     -0.386403    0.508776    2.082017
C     -0.400832    1.273413    0.783131
C     -0.760906    2.630407    0.808449
C     -0.773681    3.393973   -0.375434
O     -1.078442    4.763576   -0.388056
C     -1.445543    5.518988    0.762455
C     -0.467496    2.774997   -1.589667
C     -0.154473    1.415396   -1.632846
C     -0.123204    0.650470   -0.455883
H     -0.234155   -1.268331   -1.407591
H      2.019090   -0.887940   -1.892678
H      2.360143   -0.117447   -0.295172
H      3.108539   -2.142180    0.446997
H      2.531215   -2.970629   -1.037292
H      1.389365   -3.129456    1.598432
H      0.857566   -6.162325    0.092594
H     -0.765600   -5.641144    0.694150
H      0.710453   -5.302810    1.670671
H     -1.770508   -2.642477   -0.127119
H     -1.619899   -2.753748    1.665569
H     -2.141663   -1.223427    0.866757
H      1.465799   -0.590666    2.009319
H      0.158898   -1.418709    2.899450
H     -1.431137    0.324888    2.411446
H      0.095574    1.131122    2.869945
H     -1.003451    3.090512    1.757931
H     -0.651175    5.451584    1.538759
H     -1.565194    6.585134    0.472128
H     -2.412159    5.145434    1.167454
H     -0.472684    3.350817   -2.505134
H      0.082030    0.960900   -2.587910
