47

O      0.897761   -3.069535    1.835616
C      0.051952   -2.930686    0.966995
C      0.387831   -2.703725   -0.466389
C     -0.981032   -2.374345   -1.098619
C     -1.253178   -3.209411   -2.284381
N     -1.466807   -3.864015   -3.214388
C     -2.034597   -2.388787    0.032770
C     -1.395283   -3.163596    1.174467
S     -2.064091   -2.808799    2.848776
C     -1.555786   -1.100243    3.060560
C     -2.453554   -0.066263    2.763399
C     -2.152129    1.250397    3.124069
C     -0.958565    1.536709    3.793159
C     -0.057707    0.508824    4.086185
C     -0.357714   -0.808296    3.725851
C      0.165819   -1.345849   -1.141406
C      0.888186   -1.167899   -2.455890
C      0.201310   -0.664252   -3.572967
C      0.876755   -0.450804   -4.778241
C      2.244969   -0.719741   -4.871357
C      2.941367   -1.195243   -3.756876
C      2.269256   -1.410462   -2.549912
C      0.115545   -0.120046   -0.268122
C      1.201902    0.189102    0.566812
C      1.283095    1.441087    1.182671
C      0.286777    2.395766    0.962418
C     -0.799187    2.094875    0.136611
C     -0.879689    0.846447   -0.486313
H      0.948663   -3.498214   -1.007785
H     -2.284837   -1.354787    0.334462
H     -2.973683   -2.887033   -0.292893
H     -1.573575   -4.246520    0.994957
H     -3.401130   -0.285649    2.288357
H     -2.849223    2.046508    2.897270
H     -0.728185    2.555359    4.076859
H      0.865532    0.730752    4.605361
H      0.321342   -1.603542    4.003489
H     -0.856233   -0.439974   -3.508986
H      0.340530   -0.071763   -5.638569
H      2.767056   -0.551921   -5.804453
H      4.003476   -1.391393   -3.826520
H      2.823933   -1.763035   -1.689296
H      2.005305   -0.523196    0.706538
H      2.125035    1.676078    1.820701
H      0.352851    3.366028    1.437215
H     -1.568646    2.835997   -0.035965
H     -1.697471    0.644798   -1.166937
