62

C      0.462882    4.403995    0.065072
C      0.097620    3.469415    1.233983
C     -1.394589    3.675294    1.566918
C      0.940120    3.821596    2.473402
Si     0.382130    1.642876    0.731767
O     -0.219809    1.463055   -0.900717
C      0.570496    0.597834   -1.688786
C      0.176696   -0.879161   -1.476860
C      1.190648   -1.845715   -2.099722
C      0.380210   -2.970001   -2.770001
O      0.899483   -3.277819   -4.027824
C     -0.051672   -2.827503   -4.970809
C      0.634980   -1.856656   -5.935816
C     -0.600355   -4.033767   -5.742418
O     -1.122226   -2.156273   -4.340496
C     -1.011971   -2.457936   -2.985824
C     -1.096945   -1.229191   -2.161917
O     -2.132503   -0.598743   -2.019548
C      2.157291    1.050167    0.926030
C      2.407104   -0.285378    1.287672
C      3.716982   -0.764272    1.377362
C      4.791365    0.079187    1.093617
C      4.555072    1.399631    0.706519
C      3.245460    1.879688    0.609428
C     -0.682490    0.607609    1.853982
C     -0.262084    0.318822    3.161077
C     -1.072963   -0.442536    4.008153
C     -2.314759   -0.901512    3.562530
C     -2.750401   -0.592816    2.271192
C     -1.942144    0.168515    1.421772
H      0.250578    5.462278    0.331045
H     -0.131696    4.152611   -0.840167
H      1.535631    4.336907   -0.197893
H     -2.034800    3.383905    0.705764
H     -1.598606    4.741733    1.806379
H     -1.694371    3.073221    2.450856
H      0.745044    4.869799    2.791110
H      0.687892    3.155559    3.324500
H      2.024728    3.728683    2.265796
H      1.659738    0.758690   -1.544668
H      0.395369    0.861270   -2.755028
H      0.069823   -1.107560   -0.396773
H      1.812595   -1.327150   -2.864267
H      1.871047   -2.258226   -1.322099
H      0.369754   -3.878099   -2.127173
H      1.004789   -0.969242   -5.378606
H     -0.076814   -1.508646   -6.715152
H      1.498692   -2.350204   -6.430345
H     -1.337367   -3.702421   -6.505461
H     -1.108291   -4.730811   -5.039851
H      0.224208   -4.579157   -6.249999
H     -1.781271   -3.203476   -2.685287
H      1.593349   -0.967348    1.491792
H      3.898028   -1.794179    1.657536
H      5.805978   -0.293643    1.160774
H      5.387971    2.048917    0.470204
H      3.096146    2.892908    0.281082
H      0.696962    0.667459    3.521829
H     -0.736859   -0.680737    5.009384
H     -2.941417   -1.490829    4.219070
H     -3.716883   -0.939102    1.930005
H     -2.303394    0.417278    0.433514
