58

C      4.326418    0.956893    0.203439
C      3.442527    1.737098    1.195984
C      3.572594    1.151659    2.615128
C      3.899631    3.203448    1.220768
O      2.072171    1.727029    0.769060
C      1.266112    0.592389    0.595058
O      1.708880   -0.562337    0.841258
N     -0.072985    0.761837    0.113484
C     -0.977551   -0.374191   -0.116111
C     -1.547167   -0.841441    1.251137
C     -2.460519   -2.101216    1.299321
C     -3.953954   -1.802493    1.053722
C     -4.839733   -3.003961    1.450894
C     -4.119738   -4.364886    1.345232
C     -3.070756   -4.369644    0.227201
C     -1.979006   -3.296380    0.436240
C     -2.076978   -0.012638   -1.154029
O     -3.065185    0.832134   -0.612210
C     -1.506200    0.559209   -2.438585
O     -1.627195    1.750617   -2.686190
C     -0.849183   -0.351493   -3.448601
C      0.421926    0.237096   -4.084930
C      1.556119    0.485359   -3.082349
N      1.375905    1.773806   -2.424560
N      2.212705    2.669933   -2.537284
N      3.048165    3.565488   -2.650012
H      4.090637   -0.126516    0.215406
H      5.400753    1.070636    0.464545
H      4.171494    1.335263   -0.829159
H      3.339509    0.067595    2.629554
H      2.874512    1.668393    3.308073
H      4.609027    1.278003    2.996349
H      4.959799    3.285799    1.544976
H      3.268764    3.791878    1.921404
H      3.803296    3.654438    0.209947
H     -0.382995    1.736149   -0.098425
H     -0.369860   -1.195397   -0.550715
H     -0.676745   -1.057934    1.908507
H     -2.072558    0.010661    1.734991
H     -2.403979   -2.440973    2.359709
H     -4.272615   -0.911641    1.637501
H     -4.132498   -1.583130   -0.016656
H     -5.741736   -3.013868    0.800449
H     -5.191757   -2.871872    2.497336
H     -3.619054   -4.598441    2.310610
H     -4.867532   -5.165158    1.156362
H     -3.587082   -4.187198   -0.741468
H     -2.597298   -5.373477    0.167586
H     -1.658459   -2.968363   -0.571054
H     -1.096093   -3.757924    0.930000
H     -2.581121   -0.953232   -1.451122
H     -2.626488    1.666204   -0.304964
H     -0.609632   -1.333489   -2.986316
H     -1.583876   -0.544618   -4.259234
H      0.784055   -0.491275   -4.842952
H      0.179667    1.175505   -4.630748
H      1.587154   -0.319737   -2.317687
H      2.527267    0.469093   -3.626675
