17

O      1.638900   -2.661974   -3.340109
C      1.613080   -1.944212   -2.304396
C      2.907703   -1.407676   -1.757576
C      3.418804   -2.251944   -0.588918
Cl     3.897503   -3.883122   -1.131748
C      0.320123   -1.678992   -1.645016
C      0.106087   -0.926750   -0.492805
C     -1.240694   -0.863778   -0.114509
C     -2.092460   -1.561235   -0.960328
S     -1.167711   -2.256828   -2.179253
H      2.765307   -0.358633   -1.421864
H      3.676487   -1.388261   -2.560672
H      4.308422   -1.758242   -0.144282
H      2.641397   -2.341810    0.199020
H      0.891303   -0.436441    0.066388
H     -1.585678   -0.322524    0.756322
H     -3.165418   -1.641869   -0.850992
