84

C     -2.289660   -0.206705    0.333688
C     -3.228440   -0.955365    1.310287
C     -3.566312   -0.261286    2.610563
O     -4.549989   -0.696522    3.269557
O     -2.771581    0.767145    3.143282
C     -2.981479    1.336950    4.445221
C     -4.253098    2.197102    4.446475
C     -1.776104    2.205609    4.856044
C     -0.472696    1.399213    4.932663
O      0.173590    1.483062    6.184748
C      0.747232    2.229314    5.133650
C      2.011930    1.614119    4.615641
C      2.523242    2.024439    3.452696
C      3.521998    1.208482    2.736903
O      4.693061    1.119174    3.193087
C      3.112237    0.390560    1.524735
C      2.734159    1.324135    0.367375
C      1.992188   -0.585362    1.961341
C      1.329600   -1.591416    0.964174
C      2.289401   -2.476408    0.116210
C      3.019560   -1.816746   -1.064205
O      3.432760   -2.823851   -1.969394
C      4.127295   -2.252286   -3.063897
C      3.175404   -1.601731   -4.036609
C      2.276406   -2.386454   -4.774829
C      1.358741   -1.782535   -5.640190
C      1.318402   -0.380096   -5.766610
O      0.398804    0.275489   -6.599661
C     -0.610570   -0.385342   -7.355299
C      2.219350    0.397921   -5.030652
C      3.140902   -0.204814   -4.170633
C     -0.040087   -1.222636    0.272594
O      0.094444   -0.899514   -1.089892
C     -1.174152   -0.776782   -1.745380
C     -1.238981    0.572772   -2.479929
C     -1.243004   -1.895165   -2.788324
O     -2.321212   -0.931362   -0.896305
C     -0.856147   -0.095272    0.920652
O     -0.273840    1.141302    0.536618
C     -0.643287    2.189116    1.399950
H     -2.728058    0.796073    0.149113
H     -2.787861   -1.947743    1.551425
H     -4.186729   -1.151525    0.779065
H     -3.093554    0.519461    5.194069
H     -4.173996    3.001483    3.683019
H     -4.405517    2.658760    5.446548
H     -5.147120    1.581276    4.220545
H     -1.982295    2.676418    5.843635
H     -1.652946    3.023422    4.113488
H     -0.360243    0.401404    4.455353
H      0.663197    3.323803    5.306582
H      2.425066    0.744988    5.116129
H      2.050558    2.842368    2.925559
H      3.991235   -0.210743    1.217535
H      2.074189    2.145710    0.701080
H      2.220658    0.784580   -0.444910
H      3.653215    1.783527   -0.051466
H      1.208832   -0.019617    2.486784
H      2.449879   -1.202155    2.769358
H      0.970406   -2.348393    1.703517
H      1.691003   -3.325799   -0.283893
H      3.055829   -2.922113    0.787968
H      3.904119   -1.265030   -0.687379
H      2.353594   -1.109041   -1.584490
H      4.661535   -3.069523   -3.594983
H      4.922342   -1.544613   -2.729962
H      2.280078   -3.464557   -4.671670
H      0.673998   -2.411602   -6.192017
H     -0.146253   -1.084283   -8.083682
H     -1.199698    0.371137   -7.915517
H     -1.293926   -0.939517   -6.675762
H      2.199100    1.477678   -5.120191
H      3.818417    0.418063   -3.600536
H     -0.634957   -2.169489    0.337489
H     -1.241720    1.419784   -1.764429
H     -2.164464    0.638063   -3.092490
H     -0.359004    0.692246   -3.150161
H     -2.193161   -1.842861   -3.360885
H     -0.394327   -1.816940   -3.496863
H     -1.187365   -2.884392   -2.286338
H     -0.862652   -0.243375    2.021102
H     -0.224616    2.023868    2.404610
H     -0.206502    3.130370    1.014698
H     -1.739814    2.339428    1.441466
