56

C      1.112594   -4.315953    2.115611
C      0.199231   -5.524375    1.760434
O     -1.039288   -4.959096    1.355287
C     -0.970353   -3.589284    1.432835
O     -1.904852   -2.832496    1.061433
N      0.277759   -3.127812    1.917112
C      0.789977   -1.755515    1.753393
C      0.513825   -0.917530    3.021563
C     -0.973303   -0.617658    3.289852
C     -1.662086    0.271006    2.236472
C     -1.044191    1.673391    2.133749
C     -1.867376    2.567348    1.194888
C     -1.379635    4.028606    1.172710
C      0.058340    4.229572    0.657230
C      0.292099    3.789498   -0.800445
C     -0.439108    4.670104   -1.839746
C     -1.725095    4.036064   -2.398102
C     -1.436186    2.909248   -3.401405
C     -2.731342    2.330204   -3.963373
C      2.308778   -1.770670    1.459723
C      2.698729   -2.947822    0.560878
C      2.339728   -4.241850    1.237578
O      3.056779   -5.221209    1.097499
H      1.427499   -4.372896    3.180177
H      0.607032   -6.145289    0.933739
H      0.037918   -6.164504    2.654017
H      0.304107   -1.286893    0.871392
H      0.912563   -1.470867    3.900404
H      1.079584    0.036827    2.975854
H     -1.531398   -1.572773    3.381156
H     -1.052912   -0.115427    4.278666
H     -1.647770   -0.216464    1.240620
H     -2.729632    0.369718    2.531953
H     -0.999638    2.135936    3.144017
H     -0.015711    1.582736    1.729091
H     -2.924476    2.574195    1.540024
H     -1.864308    2.136963    0.172429
H     -1.438924    4.436310    2.205400
H     -2.078091    4.634989    0.558762
H      0.768878    3.688144    1.316113
H      0.317900    5.306563    0.752645
H      0.056208    2.713680   -0.921952
H      1.383757    3.878842   -0.992372
H     -0.691838    5.657226   -1.395016
H      0.249804    4.883962   -2.686490
H     -2.360680    3.655522   -1.573478
H     -2.302003    4.831763   -2.918795
H     -0.826024    3.303989   -4.242769
H     -0.868450    2.090042   -2.912910
H     -3.351661    1.907436   -3.144296
H     -2.494365    1.519282   -4.683952
H     -3.309104    3.117709   -4.492773
H      2.601133   -0.818065    0.966255
H      2.886871   -1.848113    2.408322
H      2.166464   -2.879560   -0.412193
H      3.793158   -2.910760    0.368810
