56

C     -4.873373   -0.368374    2.606195
C     -6.001183   -0.624810    3.647646
O     -5.359548   -1.225610    4.764551
C     -4.004230   -1.274020    4.545395
O     -3.180659   -1.697258    5.398724
N     -3.635978   -0.776060    3.273575
C     -2.324252   -0.212303    2.954952
C     -1.857772   -0.738666    1.575852
C     -0.497710   -0.203655    1.091465
C      0.658943   -0.543732    2.047325
C      2.028519   -0.147224    1.472171
C      2.527507   -1.136890    0.405067
C      3.972086   -0.850472   -0.042643
C      4.191018    0.529130   -0.697322
C      3.282941    0.831982   -1.902991
C      3.472985   -0.161936   -3.057977
C      2.659344    0.262320   -4.286189
C      2.826151   -0.743271   -5.431177
C      2.014712   -0.325816   -6.654463
C     -2.443331    1.317598    3.038870
C     -3.530810    1.868631    2.106087
C     -4.820998    1.080230    2.155310
O     -5.839781    1.603181    1.728705
H     -5.035657   -1.016990    1.717906
H     -6.766285   -1.318283    3.237656
H     -6.494412    0.315332    3.977128
H     -1.591219   -0.549351    3.718927
H     -2.618751   -0.495963    0.803604
H     -1.801872   -1.848248    1.625356
H     -0.550495    0.893992    0.932657
H     -0.303018   -0.660648    0.099078
H      0.519587    0.021188    2.993477
H      0.648618   -1.627838    2.294743
H      1.966055    0.878994    1.051346
H      2.762216   -0.126352    2.307588
H      1.855251   -1.138737   -0.476505
H      2.505417   -2.164254    0.830264
H      4.642932   -0.928638    0.840668
H      4.292178   -1.646499   -0.748072
H      5.251782    0.595833   -1.024093
H      4.049085    1.324225    0.065201
H      2.218186    0.852942   -1.587183
H      3.533211    1.853648   -2.264292
H      4.550579   -0.212282   -3.329475
H      3.138581   -1.172436   -2.739183
H      1.583841    0.329223   -4.009572
H      3.000701    1.265288   -4.625460
H      3.898649   -0.811624   -5.716605
H      2.484765   -1.748371   -5.100275
H      2.158769   -1.068703   -7.467052
H      0.933510   -0.280305   -6.402399
H      2.349332    0.669088   -7.019063
H     -2.707451    1.589569    4.084790
H     -1.471657    1.807365    2.821801
H     -3.157559    1.876458    1.059901
H     -3.736269    2.922788    2.393369
