35

C      2.859258   -0.315445    1.092354
O      1.624628   -0.970865    0.830705
C      0.350524   -0.376399    0.801407
C     -0.772599   -1.215284    0.880666
C     -2.062473   -0.728886    0.900981
C     -2.314248    0.646599    0.831640
Br    -4.105938    1.326773    0.881524
C     -1.206951    1.504479    0.720126
C      0.093873    1.018639    0.699437
C      1.068243    2.135603    0.544266
C      0.193937    3.397190    0.284644
C      0.654674    4.577249    1.161936
C      0.281036    3.806428   -1.201656
C     -1.260192    2.984458    0.634185
C     -3.074121   -1.828667    1.018405
C     -2.237582   -3.126665    1.072969
C     -0.825102   -2.655892    0.985606
O      0.179321   -3.415438    1.002024
H      3.166083    0.300804    0.225294
H      3.642649   -1.085388    1.246000
H      2.788523    0.288879    2.020029
H      1.654716    2.238723    1.481710
H      1.753350    1.938411   -0.306358
H      1.704906    4.850961    0.922885
H      0.600336    4.310076    2.239468
H      0.008167    5.464597    0.989475
H     -0.048310    2.970162   -1.855978
H     -0.367524    4.686151   -1.403650
H      1.325267    4.073728   -1.472658
H     -1.993501    3.305876   -0.137765
H     -1.581224    3.383555    1.621361
H     -3.668754   -1.704540    1.948981
H     -3.744539   -1.828747    0.132149
H     -2.474301   -3.788119    0.212143
H     -2.402876   -3.665783    2.030369
