48

C     -1.163652    0.668614    1.967540
C     -0.255076    1.872364    2.327373
C      1.209628    1.557734    2.312562
O      1.994466    2.372197    2.871534
C      1.749480    0.351033    1.640985
C      3.024282   -0.009349    1.860088
C      0.850484   -0.564808    0.817405
C      1.479575   -0.948282   -0.515804
C      2.135706   -0.077236   -1.296086
C      2.724287   -0.452038   -2.594594
C      3.408679    0.401769   -3.434777
O      3.794017   -0.255160   -4.504401
C      3.394044   -1.502919   -4.406856
C      2.712875   -1.684896   -3.220939
C     -0.643329   -0.068110    0.671800
C     -0.761260    0.921004   -0.528734
C     -1.580647   -1.267972    0.344492
C     -1.832968   -2.198695    1.533713
C     -2.443113   -1.433366    2.705279
C     -1.568609   -0.247553    3.197537
C     -2.451117    0.559906    4.190002
C     -0.361770   -0.780872    4.009006
H     -2.129684    1.134736    1.664393
H     -0.519732    2.297080    3.314190
H     -0.430502    2.695597    1.602698
H      3.428298   -0.918264    1.431957
H      3.686238    0.584106    2.477782
H      0.840010   -1.516717    1.373730
H      1.364475   -1.975588   -0.836301
H      2.245582    0.951086   -0.974789
H      3.606781    1.450878   -3.257860
H      3.578874   -2.263082   -5.153958
H      2.268730   -2.606738   -2.871283
H     -1.767680    1.390247   -0.569492
H     -0.618252    0.398461   -1.498812
H     -0.006809    1.731590   -0.463148
H     -2.568711   -0.888248   -0.001806
H     -1.162335   -1.867282   -0.493103
H     -2.551900   -2.984952    1.216095
H     -0.912944   -2.729967    1.846537
H     -2.628464   -2.147919    3.537904
H     -3.439411   -1.055294    2.381251
H     -2.890887   -0.111975    4.959451
H     -3.291498    1.063453    3.665592
H     -1.869080    1.327841    4.738512
H     -0.716848   -1.347585    4.896959
H      0.268650    0.050653    4.385161
H      0.271989   -1.474145    3.434992
