48

C      0.854305   -0.573872    0.394241
C      1.314666   -1.321510   -0.883690
C      0.330146   -1.266064   -2.011614
O      0.478368   -2.078332   -2.965563
C     -0.773222   -0.276135   -2.046329
C     -1.759996   -0.421651   -2.945276
C     -0.883040    0.823178   -0.995283
C     -1.180811    2.184789   -1.609777
C     -0.587009    2.633019   -2.725375
C     -0.866148    3.960513   -3.302326
C     -0.285741    4.469928   -4.445526
O     -0.755870    5.674544   -4.673593
C     -1.619373    5.981693   -3.732097
C     -1.729120    4.936403   -2.838326
C      0.307379    0.865150    0.044200
C      1.488393    1.705831   -0.531990
C     -0.143625    1.581763    1.351267
C     -1.089606    0.747891    2.219559
C     -0.443305   -0.578504    2.611401
C     -0.014034   -1.445195    1.395754
C     -1.258946   -2.097927    0.744982
C      0.847169   -2.603993    1.971352
H      1.796870   -0.392757    0.960947
H      1.552552   -2.380396   -0.668268
H      2.267328   -0.879805   -1.245591
H     -1.749233   -1.216869   -3.679736
H     -2.609214    0.250205   -2.954810
H     -1.808436    0.588235   -0.443762
H     -1.897832    2.810538   -1.094375
H      0.133268    2.006409   -3.236555
H      0.444148    3.970810   -5.069472
H     -2.156469    6.919179   -3.679024
H     -2.362699    4.905111   -1.962588
H      1.771795    1.364959   -1.548867
H      2.388022    1.638100    0.116712
H      1.225354    2.783594   -0.593580
H     -0.640164    2.546815    1.110762
H      0.748802    1.831359    1.969050
H     -1.307446    1.319489    3.147872
H     -2.065930    0.579397    1.724632
H      0.446263   -0.349238    3.241203
H     -1.153630   -1.142608    3.255939
H     -0.974196   -2.735804   -0.116635
H     -2.006350   -1.362635    0.409571
H     -1.775991   -2.753716    1.478677
H      1.813804   -2.228853    2.370970
H      1.059982   -3.384212    1.212852
H      0.314313   -3.111552    2.805210
