63

C      0.428527    0.129486   -3.486000
C     -0.580996    1.224932   -3.860692
C      0.608311    2.223415   -4.000692
C      0.309950    3.597700   -3.366625
C      1.111343    2.382328   -5.451204
C      1.466142    1.222953   -3.182452
C      1.627279    1.628865   -1.710224
O      2.599894    2.305024   -1.404990
C      0.643788    1.275313   -0.623677
O      1.318336    0.573865    0.393239
Si     0.191240   -0.038155    1.576147
C     -1.520170    0.706743    1.346997
C     -1.841655    1.974435    1.862596
C     -3.087952    2.552872    1.597923
C     -4.015151    1.881570    0.795518
C     -3.694912    0.635558    0.253804
C     -2.452273    0.053904    0.521230
C      0.076728   -1.879669    1.325788
C     -0.975688   -2.610349    1.899366
C     -1.026720   -3.999865    1.753707
C     -0.022423   -4.666567    1.048140
C      1.043570   -3.947483    0.500858
C      1.096415   -2.559055    0.642056
C      0.949563    0.252216    3.311248
C      1.650075    1.624100    3.359481
C      2.004053   -0.837374    3.591586
C     -0.143390    0.181757    4.391774
O      2.658711    0.602624   -3.635324
C      2.532903   -0.754820   -3.323812
O      3.487295   -1.569862   -3.399274
C      1.120793   -1.122789   -2.940845
H      0.511698   -0.221035   -4.553014
H     -1.155069    1.067321   -4.804321
H     -1.254874    1.457691   -3.004594
H     -0.398572    4.159106   -4.011510
H      1.247627    4.183730   -3.274098
H     -0.153371    3.505900   -2.364399
H      2.040640    2.991109   -5.460406
H      0.344426    2.894461   -6.067763
H      1.342675    1.403115   -5.927305
H     -0.182680    0.665099   -1.045926
H      0.219883    2.224336   -0.218734
H     -1.132832    2.530628    2.453210
H     -3.328438    3.528477    2.002840
H     -4.975987    2.331709    0.578681
H     -4.403881    0.127301   -0.388504
H     -2.212634   -0.893528    0.060131
H     -1.756083   -2.107210    2.456140
H     -1.837785   -4.563423    2.197433
H     -0.063880   -5.741833    0.937916
H      1.834611   -4.467351   -0.022579
H      1.938691   -2.023551    0.226480
H      2.130957    1.779452    4.350955
H      2.440918    1.691543    2.579316
H      0.935018    2.451503    3.203085
H      2.775065   -0.853243    2.791820
H      2.513321   -0.651581    4.561724
H      1.537081   -1.843653    3.652089
H     -0.679691   -0.790246    4.342024
H     -0.882933    1.000045    4.272086
H      0.302364    0.279736    5.406482
H      0.783889   -2.063071   -3.433771
H      1.019423   -1.206143   -1.844105
