28

C     -2.349326   -2.170540   -1.751841
C     -1.097351   -1.685749   -1.104439
O     -0.368776   -2.496871   -0.471000
O     -0.763659   -0.329168   -1.180408
C      0.360178    0.244863   -0.515561
C      0.110468    0.388977    0.993639
O      1.343765    0.743110    1.628511
C      1.397406    1.217981    2.944301
C      0.299667    1.676225    3.543219
C     -0.961394    1.750779    2.792302
O     -2.005379    2.156161    3.369751
C     -0.982072    1.437584    1.318353
O     -2.273749    0.932214    0.968220
C     -2.999746    1.344850   -0.155634
C     -4.334106    0.739456   -0.428178
O     -2.554239    2.239456   -0.924430
H     -2.709831   -1.424066   -2.490296
H     -3.130515   -2.322304   -0.978398
H     -2.158334   -3.130878   -2.275230
H      0.563272    1.244613   -0.954849
H      1.259591   -0.384565   -0.693677
H     -0.210346   -0.593926    1.403726
H      2.342718    1.223397    3.470685
H      0.344734    2.022290    4.568354
H     -0.762782    2.387967    0.783420
H     -5.131880    1.447924   -0.123096
H     -4.434233    0.516197   -1.511182
H     -4.447394   -0.205119    0.143994
