46

C     -5.539066   -1.181694   -1.539011
C     -4.331781   -0.394651   -0.985948
C     -4.706954    1.096352   -0.892000
C     -3.979061   -0.925427    0.414876
C     -3.119700   -0.547019   -1.883325
O     -3.113965   -1.385968   -2.827439
O     -1.982316    0.225033   -1.626750
C     -0.781873    0.106813   -2.383450
C      0.299576    1.023422   -1.806135
O     -0.109173    2.387608   -1.950671
C      0.546989    3.432871   -1.288511
C      1.356978    3.180668   -0.260237
C      1.503293    1.802076    0.230272
O      2.304478    1.556733    1.171300
C      0.624486    0.711980   -0.324683
O      1.302836   -0.541734   -0.219605
C      0.661925   -1.758868    0.051181
O     -0.575983   -1.782788    0.298627
C      1.440180   -3.056044   -0.039030
C      1.278763   -3.626889   -1.458272
C      0.906169   -4.073159    0.990569
C      2.934388   -2.800714    0.244101
H     -5.805511   -0.823965   -2.557275
H     -6.426192   -1.052284   -0.881813
H     -5.308403   -2.267687   -1.595952
H     -5.600888    1.235929   -0.246244
H     -3.873254    1.689318   -0.456958
H     -4.936427    1.504109   -1.900434
H     -3.690384   -1.997866    0.364107
H     -3.128712   -0.356104    0.849627
H     -4.847943   -0.828692    1.101294
H     -0.980928    0.395569   -3.438372
H     -0.429305   -0.946624   -2.376034
H      1.226519    0.877711   -2.405154
H      0.383876    4.452885   -1.610457
H      1.880343    3.991860    0.230356
H     -0.306106    0.710380    0.284766
H      1.662499   -2.907849   -2.214611
H      0.207771   -3.826108   -1.680685
H      1.841002   -4.579864   -1.564071
H      1.491385   -5.017314    0.949237
H     -0.158092   -4.322278    0.788149
H      0.980474   -3.659993    2.019926
H      3.508475   -3.751951    0.209725
H      3.068084   -2.347658    1.250470
H      3.370138   -2.112128   -0.512026
