44

C      0.083753    1.602796   -1.604707
O     -1.150777    0.951885   -1.453742
C     -0.975319   -0.180388   -2.315590
C     -1.748431   -1.413254   -1.773445
C     -1.642942   -2.600729   -2.742957
C     -1.334661   -1.857619   -0.344326
C     -1.691153   -0.858039    0.734810
C     -3.021708   -0.443738    0.918832
C     -3.345392    0.482915    1.914250
C     -2.344353    0.994700    2.760606
O     -2.616728    1.931801    3.768242
C     -3.907378    2.468971    4.038433
C     -1.027176    0.551740    2.602944
C     -0.703623   -0.376905    1.610584
C      0.524993   -0.368363   -2.422845
O      1.128991   -1.149679   -3.140093
C      1.101819    0.567136   -1.469804
O      2.255272    1.311379   -1.646731
C      1.919031    2.478716   -0.873948
C      2.630167    2.420842    0.485803
C      2.366568    3.733621   -1.635640
O      0.496917    2.525897   -0.660735
H      0.091105    2.113049   -2.609620
H     -1.373675    0.078044   -3.323194
H     -2.823236   -1.132595   -1.758647
H     -2.354291   -3.399784   -2.443092
H     -0.618779   -3.028854   -2.739908
H     -1.901259   -2.284665   -3.776175
H     -0.245997   -2.082393   -0.329744
H     -1.854401   -2.807988   -0.093230
H     -3.813478   -0.837730    0.295322
H     -4.376659    0.790711    2.019928
H     -4.606625    1.655874    4.326746
H     -4.292091    3.005702    3.145579
H     -3.832043    3.187631    4.879977
H     -0.250217    0.924462    3.258434
H      0.318527   -0.723227    1.534162
H      1.110686    0.079771   -0.469516
H      3.729943    2.351468    0.344526
H      2.398207    3.328847    1.082613
H      2.292492    1.533028    1.060881
H      1.875070    3.776208   -2.630224
H      3.466633    3.720036   -1.791073
H      2.092374    4.648866   -1.068581
