25

O     -2.014852    0.748957    2.135720
C     -0.951311    0.074217    2.186480
C     -1.010790   -1.413495    1.989939
C     -0.672630   -1.819334    0.548107
C     -1.718242   -1.339213   -0.440499
C     -2.845246   -2.047197   -0.576660
C     -1.563794   -0.094903   -1.241817
C     -0.530500    0.742842   -1.148370
C      0.336490    0.753873    2.398092
C      0.518240    2.113923    2.556336
C      1.876060    2.290867    2.712682
C      2.437522    1.032092    2.640855
O      1.495015    0.137380    2.452845
H     -0.290532   -1.902087    2.681134
H     -2.022763   -1.787971    2.259117
H     -0.617029   -2.929695    0.506249
H      0.343969   -1.471378    0.276039
H     -3.625845   -1.736563   -1.260490
H     -3.008753   -2.950885   -0.002244
H     -2.343393    0.161297   -1.950511
H     -0.503939    1.628090   -1.770426
H      0.291383    0.587197   -0.467619
H     -0.241833    2.884138    2.554303
H      2.396673    3.227444    2.860502
H      3.491053    0.801454    2.724250
