25

O      0.206597   -1.258618   -1.636839
C      0.162934   -1.215515   -0.378239
C      1.382051   -0.766938    0.381342
C      1.275209    0.701177    0.819389
C      1.270542    1.649045   -0.363471
C      0.101400    2.100388   -0.831425
C      2.521084    2.066408   -1.050174
C      3.736403    1.629741   -0.718215
C     -1.093187   -1.570464    0.305062
C     -1.321018   -1.576295    1.669430
C     -2.632334   -1.969778    1.826000
C     -3.123929   -2.180275    0.554271
O     -2.184299   -1.934509   -0.329371
H      1.514317   -1.407696    1.278932
H      2.286438   -0.909730   -0.248618
H      0.359826    0.839707    1.436239
H      2.122151    0.946638    1.493525
H      0.057554    2.767735   -1.683499
H     -0.835202    1.805318   -0.374266
H      2.451510    2.765592   -1.875911
H      3.902067    0.925555    0.084021
H      4.599537    1.980591   -1.268942
H     -0.625405   -1.325289    2.458852
H     -3.168090   -2.089303    2.758076
H     -4.127527   -2.498964    0.306560
