74

C     -3.366660    1.405791    0.458948
C     -3.877597    0.436183    1.550832
C     -4.436878   -0.812991    0.832228
C     -5.015159    1.140569    2.319197
C     -2.776973    0.012371    2.544295
C     -1.467057    0.542425    2.507698
C     -0.484429    0.094764    3.394093
C     -0.779700   -0.886174    4.352968
C      0.261869   -1.425759    5.258861
O     -0.061307   -1.783816    6.425101
C      1.673948   -1.676505    4.795514
C      1.850158   -3.108639    4.263427
C      1.016888   -3.412465    3.002905
N      1.205252   -2.394754    1.944832
C      2.553066   -2.496821    1.332518
C      2.695379   -1.630626    0.060921
C      1.559574   -0.611146   -0.058945
O      1.745019    0.134510   -1.249614
C      1.034316    1.367621   -1.238090
C      1.998460    2.490528   -1.543952
C      2.879149    2.398601   -2.638397
C      3.752616    3.449881   -2.932667
C      3.752572    4.603085   -2.143790
C      2.876885    4.708318   -1.060207
C      2.001230    3.659563   -0.760990
C     -0.068131    1.359265   -2.276863
C     -1.134243    2.269679   -2.160594
C     -2.154008    2.293423   -3.116284
C     -2.110730    1.422769   -4.207717
C     -1.045412    0.530373   -4.347743
C     -0.024373    0.500765   -3.393187
C      0.208723   -1.354850   -0.089340
C      0.156072   -2.527463    0.912675
C     -2.090068   -1.374477    4.438187
C     -3.071832   -0.934691    3.549017
H     -2.545716    0.935867   -0.122406
H     -4.179395    1.661790   -0.255465
H     -3.006575    2.358602    0.904623
H     -4.939701   -1.504164    1.540426
H     -3.617189   -1.366964    0.324617
H     -5.188670   -0.523782    0.065898
H     -5.809391    1.484735    1.621007
H     -4.620989    2.025829    2.864213
H     -5.487477    0.458889    3.057749
H     -1.175085    1.293883    1.789870
H      0.502110    0.532046    3.328039
H      2.358303   -1.537850    5.660254
H      1.995653   -0.945585    4.027766
H      1.567165   -3.832014    5.059467
H      2.925463   -3.282555    4.047883
H     -0.051016   -3.453370    3.311808
H      1.275660   -4.428067    2.626766
H      2.795754   -3.553129    1.076554
H      3.310149   -2.144602    2.065635
H      2.688614   -2.288725   -0.837682
H      3.672443   -1.097884    0.076758
H      1.620364    0.040511    0.845443
H      0.549683    1.576920   -0.253175
H      2.888395    1.514570   -3.263883
H      4.428642    3.371155   -3.774130
H      4.429057    5.416015   -2.374265
H      2.874412    5.604905   -0.453361
H      1.324565    3.762529    0.078235
H     -1.178509    2.956580   -1.324440
H     -2.977479    2.988519   -3.011491
H     -2.899436    1.444099   -4.948494
H     -1.007929   -0.136628   -5.199214
H      0.795607   -0.191572   -3.530517
H     -0.604232   -0.633547    0.132976
H      0.022146   -1.749032   -1.112251
H     -0.853765   -2.530751    1.381720
H      0.276706   -3.491792    0.367707
H     -2.349911   -2.122924    5.176860
H     -4.065448   -1.350485    3.645928
