31

C     -0.857381   -0.548433   -0.447756
C     -0.266047   -0.588022    0.941182
C      0.234941    0.516756    1.533629
C      0.287036    1.851166    0.903464
O     -0.194377    2.827322    1.538631
C      0.934353    2.084777   -0.410584
C      0.555028    3.187266   -1.197618
C      1.167615    3.419121   -2.433065
C      2.169266    2.560107   -2.890982
C      2.563561    1.469711   -2.112351
C      1.954653    1.233597   -0.876150
C     -0.216275   -1.893062    1.651846
C      0.156257   -3.060304    0.959692
C      0.199595   -4.292104    1.619844
C     -0.132332   -4.373719    2.974008
C     -0.510443   -3.223797    3.670671
C     -0.554752   -1.989146    3.015800
H     -1.396910    0.404824   -0.629569
H     -1.595239   -1.368684   -0.575265
H     -0.057295   -0.675669   -1.205362
H      0.598589    0.457696    2.552129
H     -0.222620    3.862402   -0.862416
H      0.865051    4.265629   -3.035894
H      2.642311    2.741451   -3.847431
H      3.344429    0.808424   -2.465106
H      2.285131    0.389914   -0.283472
H      0.426645   -3.017100   -0.088009
H      0.492262   -5.183982    1.080930
H     -0.098968   -5.328405    3.482862
H     -0.774152   -3.289534    4.718375
H     -0.870681   -1.114397    3.570155
