55

C      1.668916    0.073746   -0.294625
C      0.940820    1.400415    0.099595
O      1.303623    1.755755    1.413287
C     -0.621201    1.368556   -0.060356
C     -1.277043    2.627563    0.575957
C     -1.307332    2.577509    2.082557
C     -2.079097    1.701389    2.744707
C     -2.109629    1.667373    4.254645
C     -3.318988    0.866146    4.747926
C     -0.811977    1.064942    4.804756
C     -1.046628    1.287537   -1.554769
C     -1.007663   -0.083347   -2.078882
C     -0.971471   -1.209318   -2.508222
C     -0.915598   -2.578837   -3.017335
C      3.179347    0.172261   -0.154194
O      3.723360    1.207889    0.201374
C      4.019435   -1.008526   -0.552291
C      3.482664   -2.292926    0.085779
C      1.970195   -2.446906   -0.140355
C      1.159480   -1.235406    0.399067
C      1.169800   -1.157904    1.949155
C      0.613527   -2.395548    2.605074
C      0.725523   -2.582283    3.922205
H      1.504724   -0.055714   -1.384791
H      1.321352    2.181842   -0.604334
H      1.532052    2.722319    1.415161
H     -1.036491    0.485394    0.468976
H     -0.728088    3.537914    0.250301
H     -2.328619    2.744626    0.234106
H     -0.706176    3.293160    2.636940
H     -2.710660    1.017348    2.182595
H     -2.211590    2.707427    4.636965
H     -3.359030    0.877968    5.858153
H     -3.260113   -0.188783    4.402450
H     -4.258175    1.318243    4.363120
H     -0.694696    0.015049    4.462251
H     -0.825223    1.078551    5.915323
H      0.066167    1.653900    4.463839
H     -0.403367    1.938124   -2.184438
H     -2.092649    1.635586   -1.688580
H     -1.036685   -3.290358   -2.174508
H     -1.730057   -2.733993   -3.754482
H      0.065472   -2.750917   -3.506215
H      3.996766   -1.106286   -1.659144
H      5.075498   -0.856879   -0.239359
H      4.006728   -3.164234   -0.362794
H      3.709629   -2.297213    1.173041
H      1.630194   -3.396313    0.321628
H      1.781945   -2.548880   -1.232122
H      0.108495   -1.411159    0.092237
H      2.198979   -0.962185    2.317969
H      0.522872   -0.324512    2.284091
H      0.086882   -3.140894    2.016599
H      0.307564   -3.471850    4.382338
H      1.231765   -1.853658    4.548408
