55

C      0.999234   -2.131017    1.247734
C      1.005271   -1.247230   -0.053950
O      1.225998    0.105814    0.260016
C     -0.299572   -1.400294   -0.898668
C     -0.553981   -0.188419   -1.838663
C      0.580804    0.085558   -2.800321
C      0.673447    1.155716   -3.616180
C     -0.261055    2.351839   -3.692560
C     -0.072790    3.304126   -2.506302
C     -1.734501    1.982377   -3.906053
C     -0.313942   -2.740397   -1.681581
C     -1.653001   -3.046601   -2.202302
C     -2.753031   -3.293892   -2.627998
C     -4.089865   -3.589945   -3.142307
C      2.360542   -2.765755    1.426045
O      2.573033   -3.892179    1.002613
C      3.477818   -1.971175    2.042823
C      3.017274   -1.340290    3.358743
C      1.709602   -0.553550    3.186514
C      0.589263   -1.446771    2.598145
C     -0.766126   -0.697437    2.561714
C     -1.944599   -1.633384    2.457319
C     -2.285831   -2.453249    3.456114
H      0.277900   -2.964783    1.107330
H      1.832119   -1.600381   -0.719639
H      2.193879    0.289351    0.137026
H     -1.154902   -1.421389   -0.196963
H     -0.739769    0.701171   -1.207232
H     -1.478489   -0.376093   -2.421734
H      1.384415   -0.640921   -2.866927
H      1.530616    1.183006   -4.284142
H      0.048816    2.921298   -4.597140
H     -0.437931    2.862821   -1.558989
H     -0.635500    4.244999   -2.687390
H      1.001626    3.562142   -2.390440
H     -2.279026    2.854801   -4.326526
H     -1.825974    1.139313   -4.623917
H     -2.230308    1.715037   -2.951232
H      0.401309   -2.715218   -2.528763
H     -0.013232   -3.583472   -1.027934
H     -4.456702   -4.537040   -2.695563
H     -4.779711   -2.763078   -2.874366
H     -4.047298   -3.693173   -4.246219
H      4.354245   -2.626655    2.238676
H      3.794705   -1.175622    1.335635
H      2.870400   -2.139677    4.118384
H      3.809794   -0.657821    3.734287
H      1.889612    0.345078    2.564689
H      1.398593   -0.189275    4.190154
H      0.470987   -2.272508    3.336923
H     -0.891591   -0.101483    3.492231
H     -0.796176    0.025986    1.722939
H     -2.575850   -1.599241    1.575642
H     -1.709683   -2.487752    4.375602
H     -3.157608   -3.091982    3.359784
