55

C     -0.309852    0.228240   -1.040999
C      0.194255   -0.474343    0.267283
O     -0.909318   -1.076544    0.895616
C      1.304425   -1.580704    0.099769
C      0.954180   -2.671131   -0.943313
C     -0.282490   -3.441835   -0.560293
C     -1.376024   -3.460683   -1.338154
C     -2.625527   -4.196413   -0.913336
C     -3.346827   -3.427498    0.202173
C     -3.559011   -4.400529   -2.112955
C      2.738313   -1.048394   -0.143352
C      3.157837   -0.077166    0.874610
C      3.498556    0.726551    1.705048
C      3.904621    1.708724    2.710561
C      0.802775    0.708012   -1.951130
O      1.115907    0.044684   -2.929477
C      1.466666    2.045180   -1.744123
C      0.964060    2.758918   -0.486382
C     -0.569897    2.772772   -0.373569
C     -1.266780    1.449802   -0.823869
C     -2.584889    1.151892   -0.060736
C     -2.473240    1.157982    1.445141
C     -3.551637    0.962041    2.210144
H     -0.893901   -0.531219   -1.607422
H      0.580389    0.308931    0.950305
H     -0.673351   -1.211599    1.851828
H      1.370243   -2.106808    1.081406
H      0.853729   -2.230223   -1.955019
H      1.787517   -3.405646   -1.000799
H     -0.285295   -3.975637    0.386906
H     -1.362847   -2.944441   -2.294806
H     -2.341329   -5.203600   -0.529399
H     -4.262944   -3.973011    0.514583
H     -3.634502   -2.409635   -0.146037
H     -2.688996   -3.328872    1.092967
H     -3.872713   -3.422490   -2.538569
H     -4.463728   -4.964300   -1.803507
H     -3.041830   -4.987104   -2.901999
H      3.451048   -1.899431   -0.094837
H      2.856648   -0.601994   -1.146100
H      4.046785    1.201761    3.686979
H      4.856326    2.184363    2.399515
H      3.118489    2.484809    2.806950
H      2.565804    1.896209   -1.652714
H      1.269066    2.685229   -2.632025
H      1.404119    2.281768    0.410059
H      1.336991    3.806094   -0.493306
H     -0.955962    3.606962   -1.005781
H     -0.830087    3.051632    0.669742
H     -1.626290    1.670100   -1.858727
H     -2.989255    0.170835   -0.392962
H     -3.333084    1.924847   -0.346842
H     -1.511518    1.297164    1.931120
H     -4.532053    0.820159    1.765183
H     -3.457596    0.959271    3.292351
