38

C      2.118889    1.128510    0.588526
C      2.348461    0.759460   -0.886796
C      1.061699    0.448975   -1.650445
C      0.178234   -0.620771   -0.966728
C      0.875447   -1.998970   -0.987474
C     -1.105996   -0.735130   -1.784222
O     -1.052834   -0.936125   -2.989783
C     -2.444344   -0.598791   -1.129767
C     -2.388360   -1.240427    0.248167
C     -1.284785   -0.629218    1.085084
C     -1.529492   -0.564524    2.576924
C     -0.103733   -0.236271    0.501890
C      1.064082    0.282489    1.354280
O      0.609962    1.166783    2.369571
C      1.021788    2.463824    2.156899
O      0.732712    3.408083    2.938019
C      1.818662    2.617648    0.921199
C      0.996502    3.395094   -0.113801
H      3.091799    0.917349    1.091694
H      2.900278    1.575428   -1.400074
H      3.013000   -0.129922   -0.935044
H      0.475937    1.376089   -1.802717
H      1.349612    0.104742   -2.668848
H      0.191169   -2.786084   -0.603713
H      1.781651   -2.005311   -0.346644
H      1.176396   -2.275911   -2.020916
H     -3.225455   -1.104551   -1.738464
H     -2.702995    0.478661   -1.041503
H     -2.207933   -2.332961    0.148687
H     -3.376212   -1.100333    0.738287
H     -1.700983    0.485769    2.890850
H     -2.430796   -1.147228    2.861940
H     -0.672967   -1.001693    3.131952
H      1.557569   -0.592149    1.831509
H      2.761912    3.167569    1.134811
H      0.842387    4.436062    0.242529
H      1.534080    3.455383   -1.081870
H     -0.004258    2.934890   -0.258177
