35

C      1.204532   -3.872005    0.955592
C      0.761631   -2.437673    1.071978
C     -0.519063   -2.156616    1.586274
C     -0.929001   -0.830168    1.685939
C     -0.124670    0.210548    1.302679
C      1.158951   -0.027744    0.789534
C      1.596428   -1.367179    0.639556
C      2.977832   -1.629577    0.084043
C      3.549216   -0.383629   -0.598984
O      3.394634    0.744414    0.237728
C      2.028414    1.109869    0.302541
C     -0.801420    1.536912    1.495607
C     -2.212933    1.185737    2.070198
C     -3.330550    1.643037    1.117577
C     -2.413690    1.796150    3.467661
C     -2.189626   -0.313623    2.158089
O     -3.139681   -1.026248    2.580684
H      2.215481   -3.997815    1.396611
H      1.228503   -4.169020   -0.113658
H      0.514726   -4.556552    1.493790
H     -1.183447   -2.952508    1.899818
H      3.647882   -1.924936    0.919986
H      2.947775   -2.455811   -0.657897
H      3.068994   -0.225483   -1.592809
H      4.632481   -0.542207   -0.784560
H      1.942445    1.964963    1.004768
H      1.669314    1.461282   -0.690518
H     -0.206696    2.156896    2.201379
H     -0.863331    2.066864    0.519940
H     -3.310650    2.748182    1.003702
H     -4.326406    1.347181    1.512544
H     -3.200765    1.183148    0.113721
H     -1.621769    1.445389    4.164701
H     -3.401720    1.503377    3.883992
H     -2.368755    2.905067    3.413028
