35

C     -3.578466   -0.052978   -2.183311
C     -2.383398    0.090771   -1.278787
C     -1.091519    0.015011   -1.834645
C      0.011671    0.140796   -0.995244
C     -0.119706    0.339309    0.353927
C     -1.389020    0.424558    0.944993
C     -2.535100    0.264775    0.127108
C     -3.905447    0.352640    0.759686
C     -3.825153    0.217879    2.283097
O     -2.822924    1.072072    2.795303
C     -1.544429    0.577456    2.441577
C      1.215109    0.427298    1.035821
C      2.262650    0.239930   -0.110216
C      3.113920   -1.021087    0.115290
C      3.163034    1.479040   -0.250662
C      1.411015    0.076468   -1.336734
O      1.853520   -0.097928   -2.504125
H     -4.070290   -1.030737   -1.998424
H     -4.302991    0.766531   -1.994069
H     -3.287261   -0.004442   -3.254262
H     -0.947353   -0.140950   -2.896744
H     -4.352830    1.337609    0.505350
H     -4.565945   -0.450605    0.369070
H     -4.801799    0.514214    2.720590
H     -3.647136   -0.843547    2.574634
H     -1.348675   -0.396608    2.943063
H     -0.789429    1.298634    2.817838
H      1.289458   -0.368327    1.809167
H      1.312926    1.417484    1.531960
H      3.822492   -1.170471   -0.727837
H      2.465977   -1.921247    0.192426
H      3.699193   -0.927080    1.055145
H      3.873400    1.352434   -1.096003
H      2.550785    2.387442   -0.440385
H      3.748029    1.636914    0.680769
