44

C      2.288060   -0.897572   -1.303858
C      1.089374   -1.876492   -1.170939
C     -0.267882   -1.170793   -1.323652
C     -0.953979   -0.789724    0.023681
C     -2.034782    0.285344   -0.281767
O     -1.565165   -1.952581    0.608783
C     -2.627933   -2.701121    0.079218
C     -3.116573   -3.894584    0.826373
O     -3.206530   -2.360067   -0.986983
C      0.099704   -0.279276    1.069526
C     -0.508718    0.476223    2.274673
C     -0.077394    1.868941    2.023593
O     -0.467380    2.863366    2.690815
C      0.918746    1.918110    0.972019
C      1.807577    3.101341    0.721069
C      1.084665    0.693073    0.464488
C      2.354386    0.253306   -0.242362
O      3.305815   -0.180295    0.713518
C      4.085184   -1.194733    0.206307
O      5.066459   -1.677285    0.831043
C      3.678166   -1.593836   -1.162412
C      3.730928   -3.115849   -1.366644
H      2.230160   -0.443957   -2.319676
H      1.138538   -2.465070   -0.232055
H      1.159377   -2.611927   -2.001118
H     -0.136559   -0.262508   -1.954396
H     -0.941011   -1.831313   -1.908720
H     -1.574321    1.286899   -0.412606
H     -2.797992    0.336465    0.520988
H     -2.577008    0.056117   -1.223084
H     -3.977935   -3.604670    1.463148
H     -2.306215   -4.296257    1.470157
H     -3.434826   -4.686179    0.115572
H      0.664857   -1.143880    1.481226
H     -1.608388    0.391273    2.371855
H     -0.044816    0.125457    3.222285
H      1.913805    3.273569   -0.370343
H      1.371757    4.017857    1.170542
H      2.806809    2.922565    1.170569
H      2.793115    1.127700   -0.770433
H      4.388285   -1.122049   -1.877300
H      4.782515   -3.466019   -1.292409
H      3.135363   -3.651743   -0.597960
H      3.359177   -3.377444   -2.379408
