40

C     -0.116321    3.368486   -3.550477
C      0.988180    2.462066   -3.096937
O      1.701366    1.924865   -3.930588
C      1.202979    2.172170   -1.633761
C      0.154546    1.183157   -1.086910
N      0.320578    1.014471    0.360977
C     -0.660986    0.358230    1.171346
O     -1.728814   -0.064672    0.650700
O     -0.410205    0.195325    2.541854
C     -1.267293   -0.457532    3.490523
C     -0.565095   -0.394510    4.855506
C     -2.619969    0.272998    3.592944
C     -1.475446   -1.935064    3.106086
C      0.260857   -0.160262   -1.781674
C     -0.708905   -0.547113   -2.723393
C     -0.604310   -1.776942   -3.380159
C      0.469777   -2.627912   -3.107827
C      1.443452   -2.249382   -2.180200
C      1.343797   -1.020415   -1.521358
H     -0.676107    3.777585   -2.683145
H     -0.820693    2.801382   -4.194446
H      0.310074    4.213454   -4.130436
H      2.227643    1.768234   -1.476772
H      1.137670    3.127073   -1.068226
H     -0.851443    1.626431   -1.264331
H      1.184506    1.368248    0.831633
H      0.421147   -0.904400    4.805297
H     -0.391423    0.662702    5.150988
H     -1.177463   -0.885708    5.642675
H     -3.205182    0.175918    2.656010
H     -2.457507    1.353728    3.793185
H     -3.232099   -0.152298    4.417489
H     -2.058775   -2.031337    2.167819
H     -2.031288   -2.472053    3.904906
H     -0.493919   -2.434761    2.959682
H     -1.544226    0.103267   -2.951265
H     -1.355503   -2.069408   -4.102391
H      0.549101   -3.579294   -3.617733
H      2.277197   -2.907669   -1.972938
H      2.109095   -0.739161   -0.808812
