53

C      1.975179   -0.473461    1.487822
C      1.636711   -1.889864    2.033344
C      2.357758   -2.918995    1.218941
O      2.852855   -3.900332    1.751808
C      2.443174   -2.739247   -0.262970
C      1.654179   -1.476870   -0.672864
C      1.817573   -1.197138   -2.190882
C      0.502241   -1.287087   -2.932522
O      0.060515   -2.435329   -3.213685
O     -0.276275   -0.176291   -3.307372
C     -0.006400    1.204694   -3.038348
C      0.197348    1.941994   -4.377708
C      1.462834    1.489704   -5.127094
C      2.732219    2.144002   -4.583611
C     -1.201311    1.825071   -2.268711
C     -1.488227    1.188725   -0.882292
O     -1.620202   -0.218105   -1.009960
C     -2.975739   -0.585629   -1.164415
C     -0.372233    1.536354    0.135519
C     -0.377928    0.654905    1.415667
C     -1.421907    1.172520    2.420472
C      1.033099    0.612922    2.065414
O      2.106873   -0.347853    0.065646
H      2.983249   -0.241060    1.901099
H      1.937977   -1.966327    3.101447
H      0.548158   -2.097112    1.971575
H      3.513845   -2.634058   -0.546140
H      2.016006   -3.633758   -0.769285
H      0.574562   -1.653504   -0.451024
H      2.504713   -1.936456   -2.655008
H      2.323516   -0.232044   -2.364898
H      0.905668    1.344777   -2.439486
H     -0.685404    1.743135   -5.028728
H      0.240584    3.041100   -4.209521
H      1.361255    1.776515   -6.194554
H      1.568521    0.387057   -5.087303
H      2.668228    3.250155   -4.684228
H      3.612105    1.790108   -5.162957
H      2.890684    1.880467   -3.516983
H     -2.115281    1.732409   -2.896962
H     -1.022035    2.914029   -2.126594
H     -2.417315    1.663445   -0.483013
H     -3.024657   -1.679652   -1.346901
H     -3.550354   -0.372746   -0.233910
H     -3.441842   -0.075699   -2.038667
H     -0.462160    2.612466    0.419682
H      0.610718    1.458806   -0.346858
H     -0.671619   -0.382145    1.165194
H     -1.172171    2.197714    2.764684
H     -2.428050    1.186172    1.953427
H     -1.465554    0.500375    3.308708
H      1.519422    1.607818    1.953923
H      0.951280    0.444059    3.166958
