46

C     -2.059012   -2.011116   -3.507435
O     -0.812160   -1.886015   -2.836723
C      0.200337   -2.844193   -2.937357
O      0.034410   -3.886577   -3.628857
C      1.489744   -2.637272   -2.202769
C      1.628893   -3.592710   -1.007882
C      0.595506   -3.354369    0.108028
C      0.869687   -2.070049    0.902532
C     -0.074458   -1.955264    2.069650
O      0.030134   -2.732372    3.007362
C     -1.105198   -0.861301    2.128416
C     -0.492252    0.423888    2.694574
C     -1.568930    1.496147    2.927520
C     -0.966658    2.824216    3.431071
C     -0.872262    3.916745    2.349863
C      0.124869    3.592167    1.234082
O     -0.462839    2.687614    0.305690
C      0.229407    2.168942   -0.790165
C     -0.461654    1.211808   -1.700566
O      1.437084    2.470540   -0.990745
H     -1.895115   -2.073895   -4.604335
H     -2.684526   -1.119173   -3.287342
H     -2.588701   -2.919657   -3.153028
H      1.572398   -1.580530   -1.871563
H      2.329917   -2.823092   -2.907283
H      2.653226   -3.497319   -0.587389
H      1.527341   -4.639068   -1.371535
H      0.642989   -4.222076    0.802106
H     -0.431829   -3.325272   -0.315117
H      0.755154   -1.186163    0.242378
H      1.912651   -2.072739    1.288022
H     -1.954491   -1.191694    2.766141
H     -1.504287   -0.669210    1.108508
H      0.277369    0.798584    1.985738
H      0.009036    0.199152    3.663592
H     -2.272897    1.113888    3.699317
H     -2.166115    1.655956    2.002140
H      0.033318    2.665101    3.896443
H     -1.626554    3.216642    4.236925
H     -0.541955    4.854318    2.845335
H     -1.877392    4.113302    1.913969
H      1.056883    3.159456    1.662060
H      0.388183    4.531319    0.700474
H     -0.582004    0.238933   -1.181822
H      0.129462    1.061773   -2.632504
H     -1.467598    1.604990   -1.964442
