61

C     -1.878096    1.330472   -0.965734
C     -0.401082    1.113010   -0.955384
O      0.375305    1.658772   -1.724649
C     -0.004393   -0.021226   -0.070742
O      0.660360   -1.005344   -0.837330
Si     2.100194   -1.577117   -0.050420
C      1.707135   -2.157225    1.690210
C      3.354205   -0.185721    0.039534
C      2.790305   -3.017151   -1.083699
C      3.009789   -2.538068   -2.529795
C      4.126736   -3.502953   -0.494996
C      1.774031   -4.172524   -1.077641
C     -1.353880   -0.564523    0.433377
C     -2.326428    0.627362    0.329312
C     -2.220239    1.487988    1.631268
C     -3.355053    1.001390    2.536685
C     -4.267906    0.341085    1.580566
O     -5.435064   -0.028376    1.880849
N     -3.723195    0.194580    0.275752
C     -4.573653    0.340315   -0.909959
C     -4.952216    1.813259   -1.176619
C     -3.878715    2.907501   -1.237695
C     -2.453356    2.720738   -1.104771
C     -1.603392    3.855995   -1.056086
C     -2.166007    5.113176   -1.213230
C     -3.493430    5.288300   -1.385825
C     -4.380141    4.222048   -1.398957
O     -3.768326    6.636308   -1.517068
C     -2.528332    7.352230   -1.426838
O     -1.532089    6.341089   -1.224053
H     -2.191201    0.767348   -1.866863
H      0.578531    0.406610    0.778068
H      0.867296   -2.881534    1.660992
H      1.419173   -1.291644    2.322817
H      2.603258   -2.639837    2.131285
H      2.959288    0.635060    0.671376
H      4.298019   -0.558241    0.484627
H      3.546844    0.206306   -0.980529
H      3.395093   -3.367290   -3.161583
H      3.748715   -1.708222   -2.564449
H      2.055962   -2.179802   -2.974671
H      4.527765   -4.350052   -1.091577
H      4.883326   -2.689435   -0.506676
H      3.997477   -3.852033    0.551423
H      2.140224   -5.017477   -1.700942
H      1.612307   -4.552472   -0.046654
H      0.795727   -3.838023   -1.486858
H     -1.269684   -0.965271    1.467451
H     -1.704737   -1.387806   -0.230455
H     -2.384437    2.566063    1.429007
H     -1.237646    1.393570    2.144742
H     -3.860820    1.849875    3.047257
H     -2.982695    0.260433    3.276901
H     -4.108209   -0.124778   -1.800922
H     -5.511598   -0.235516   -0.754285
H     -5.517835    1.838745   -2.133260
H     -5.675000    2.105987   -0.381894
H     -0.538569    3.779037   -0.885755
H     -5.440770    4.409424   -1.515831
H     -2.549124    8.050839   -0.563198
H     -2.330008    7.897910   -2.374411
