51

C     -3.986096    0.177912    4.348009
C     -2.876718   -0.861138    4.370307
O     -2.667865   -1.363751    3.054947
C     -1.701469   -2.330244    2.761884
O     -0.959866   -2.787658    3.675565
C     -1.521372   -2.770521    1.329933
C     -1.027912   -4.228422    1.212492
C      0.446980   -4.329281    1.491224
O      0.881744   -5.234629    2.186480
C      1.387308   -3.358274    0.834995
C      0.878111   -1.915197    1.013402
C      1.765365   -0.933952    0.232488
O      1.380476    0.385592    0.540486
Si     2.144714    1.525102   -0.527189
C      2.650444    2.998781    0.507437
C      3.714965    0.861637   -1.319357
C      0.890217    2.059353   -1.855831
C     -0.336423    2.687142   -1.171346
C      0.443196    0.830927   -2.666735
C      1.536130    3.088301   -2.799618
C     -0.598561   -1.798579    0.563697
H     -4.152061    0.571328    5.372974
H     -4.928271   -0.281060    3.980340
H     -3.704622    1.018910    3.679502
H     -3.165650   -1.693201    5.048592
H     -1.941426   -0.391539    4.745643
H     -2.524766   -2.725440    0.851646
H     -1.602525   -4.884921    1.902817
H     -1.209498   -4.591129    0.177658
H      1.455750   -3.609344   -0.246028
H      2.402196   -3.454240    1.280124
H      0.949780   -1.649926    2.091997
H      1.661670   -1.156686   -0.854337
H      2.823427   -1.091210    0.540384
H      1.762273    3.424412    1.016609
H      3.384385    2.671281    1.271886
H      3.116957    3.770515   -0.137644
H      4.203090    1.668848   -1.902212
H      3.480505    0.015702   -1.996242
H      4.412902    0.520197   -0.527861
H     -1.101401    2.970513   -1.926299
H     -0.053061    3.604137   -0.612494
H     -0.800848    1.969715   -0.460386
H     -0.068662    0.092562   -2.013817
H     -0.269855    1.129739   -3.465154
H      1.312444    0.336852   -3.150321
H      0.808920    3.416099   -3.573588
H      2.415154    2.651076   -3.319095
H      1.867352    3.987910   -2.238940
H     -0.671210   -2.020992   -0.524249
H     -0.960824   -0.757026    0.710847
