52

O     -2.191780    0.280354   -3.404726
C     -2.623330    0.022037   -2.250116
C     -2.800738    1.176371   -1.294773
C     -2.268594    0.931179    0.139448
N     -0.795610    0.848576    0.281557
C     -0.057696    2.017808   -0.234119
C      1.443586    1.926240    0.108178
N      1.742061    0.703347    0.864288
C      2.482862    0.776426    2.093918
C      3.871890    1.055653    2.112376
C      4.655653    1.263225    0.830332
F      4.393372    2.524065    0.328074
F      6.020122    1.153906    1.051776
F      4.302984    0.314629   -0.114060
C      4.522301    1.187727    3.357841
C      3.828175    0.990112    4.564535
N      4.500645    1.126056    5.830203
O      3.897737    0.695819    6.991135
O      5.603501    1.708690    5.906642
C      2.463568    0.669296    4.521199
C      1.799584    0.571376    3.300347
C      1.195895   -0.586079    0.418139
C     -0.202832   -0.412933   -0.191158
C     -2.883913   -1.399013   -1.905623
C     -2.030152   -2.404930   -2.369743
S     -2.541081   -3.902498   -1.789544
C     -3.865076   -3.302984   -0.962083
C     -3.941960   -1.920038   -1.119595
C     -5.027170   -1.230060   -0.551997
C     -5.981979   -1.943020    0.193736
C     -5.867010   -3.336187    0.358785
C     -4.800950   -4.030373   -0.229162
H     -3.872734    1.440478   -1.243810
H     -2.332611    2.088226   -1.718471
H     -2.625062    1.770860    0.772989
H     -2.738357    0.025906    0.573653
H     -0.476587    2.945580    0.212551
H     -0.156133    2.087016   -1.338651
H      2.036158    1.915256   -0.832514
H      1.745507    2.827143    0.690515
H      5.576852    1.432440    3.393874
H      1.904061    0.504040    5.435473
H      0.739259    0.348758    3.289365
H      1.126475   -1.288414    1.276806
H      1.880672   -1.038875   -0.329133
H     -0.830969   -1.278372    0.115249
H     -0.118648   -0.410800   -1.299502
H     -1.154096   -2.249906   -2.987475
H     -5.168479   -0.169482   -0.690289
H     -6.818196   -1.416558    0.637636
H     -6.607572   -3.875151    0.935691
H     -4.716772   -5.104219   -0.125635
