52

C      2.230973    0.226217    1.815526
O      1.219849   -0.712973    1.466781
C      1.088536   -1.991004    2.033660
C      0.007755   -2.803668    1.636154
N     -0.950822   -2.322369    0.679401
C     -1.853450   -1.226015    1.052480
C     -2.583914   -0.680002   -0.177548
N     -1.689757   -0.763179   -1.346878
C     -2.218760    0.047189   -2.466117
C     -1.173133    0.255930   -3.574848
C      0.157913    0.693136   -3.023063
O      1.099894   -0.142504   -2.988699
C      0.369074    2.060706   -2.498289
C     -0.525748    3.128372   -2.571593
N     -0.005484    4.227561   -1.982652
C      1.210057    3.871718   -1.536580
C      1.480399    2.558055   -1.832120
C      2.690553    1.963971   -1.459720
C      3.629129    2.753414   -0.771078
C      3.346458    4.102690   -0.469729
C      2.122484    4.676125   -0.855277
C     -1.495895   -2.178877   -1.742424
C     -1.224198   -3.101067   -0.533475
C     -0.124164   -4.097253    2.165790
C      0.799537   -4.576861    3.096144
C      1.864755   -3.772152    3.501620
C      2.013019   -2.486534    2.975092
H      2.050417    1.171294    1.265502
H      3.230377   -0.167501    1.535020
H      2.194159    0.442321    2.904036
H     -2.590316   -1.586420    1.802151
H     -1.272841   -0.398736    1.512162
H     -2.872331    0.373928    0.033790
H     -3.518210   -1.260466   -0.356441
H     -2.515016    1.054079   -2.098638
H     -3.132309   -0.419594   -2.898463
H     -1.049764   -0.686023   -4.151595
H     -1.545331    1.015957   -4.294377
H     -1.503468    3.108472   -3.033918
H     -0.460613    5.163281   -1.894694
H      2.912133    0.929471   -1.678600
H      4.573076    2.321040   -0.465775
H      4.075823    4.699415    0.062305
H      1.896408    5.709897   -0.628014
H     -2.384178   -2.563449   -2.293376
H     -0.623114   -2.246853   -2.425693
H     -0.366500   -3.770926   -0.765773
H     -2.112824   -3.743582   -0.350383
H     -0.950241   -4.728434    1.863507
H      0.688794   -5.573278    3.503990
H      2.579903   -4.146540    4.222816
H      2.853555   -1.889175    3.300638
