52

O     -1.449367   -2.632303    4.150449
C     -1.654780   -1.740296    3.284055
C     -1.621400   -0.291296    3.703388
C     -0.245033    0.133609    4.283492
N      0.670532    0.800402    3.324855
C      0.178602    2.095922    2.822112
C      0.163146    2.036723    1.297110
C      0.294242    0.563225    0.963756
N      1.003912    0.342959   -0.302603
C      0.483162    0.746582   -1.589299
C     -0.904393    0.898308   -1.779438
C     -1.426888    1.222815   -3.029439
C     -0.581301    1.406618   -4.129478
N     -1.130152    1.728901   -5.421421
O     -2.490289    1.852293   -5.592418
O     -0.382928    1.901960   -6.406898
C      0.805498    1.272260   -3.951141
C      1.354899    0.962294   -2.690009
C      2.859814    0.848430   -2.537490
F      3.280975    1.569202   -1.433628
F      3.527177    1.345772   -3.644062
F      3.208605   -0.480378   -2.379626
C      1.034858   -0.016193    2.161476
C     -1.856655   -2.145743    1.877515
C     -1.014164   -3.072697    1.257748
S     -1.418380   -3.191150   -0.376655
C     -2.684803   -2.096421   -0.304979
C     -3.516005   -1.684752   -1.343544
C     -4.532717   -0.764638   -1.053962
C     -4.708142   -0.291747    0.259478
C     -3.858736   -0.722581    1.292270
C     -2.821130   -1.617563    0.992312
H     -1.916083    0.372362    2.870310
H     -2.391880   -0.159640    4.493404
H     -0.426064    0.832041    5.130176
H      0.276317   -0.738348    4.735532
H      0.868848    2.898611    3.159149
H     -0.833361    2.350580    3.207992
H     -0.778386    2.460035    0.884748
H      1.030832    2.604009    0.891885
H     -0.704979    0.099056    0.918308
H      1.912966   -0.168741   -0.269920
H     -1.603453    0.747712   -0.971159
H     -2.499892    1.319238   -3.135582
H      1.457162    1.412273   -4.803319
H      2.132917    0.078296    2.015103
H      0.814289   -1.094991    2.300997
H     -0.194198   -3.593250    1.734432
H     -3.381057   -2.063283   -2.348418
H     -5.192128   -0.424975   -1.841949
H     -5.507878    0.404128    0.477244
H     -4.030550   -0.374517    2.301157
