52

O     -4.462954   -2.763022    0.991773
C     -3.457290   -2.145048    1.438523
C     -3.680424   -0.903995    2.266131
C     -4.323618    0.230397    1.437535
N     -3.489196    1.448633    1.483503
C     -2.737404    1.664239    0.231517
C     -1.971307    2.994667    0.261311
C     -0.681469    2.747819   -0.517811
N     -0.538836    1.305911   -0.578503
C      0.710207    0.650184   -0.835768
C      1.487848    0.225668    0.250023
C      2.702281   -0.423096    0.040971
C      3.165931   -0.665037   -1.261398
N      4.430274   -1.318937   -1.478531
O      4.901449   -1.526572   -2.754680
O      5.141416   -1.669066   -0.512763
C      2.383719   -0.250200   -2.351041
C      1.142524    0.385921   -2.155709
C      0.342101    0.847294   -3.355840
F      0.681276    0.129284   -4.490269
F     -1.012391    0.675421   -3.143128
F      0.602044    2.185014   -3.583663
C     -1.658498    0.606628    0.017706
C     -2.110317   -2.586918    1.019330
C     -1.844293   -2.936829   -0.309418
S     -0.195693   -3.256745   -0.485868
C      0.188668   -2.997132    1.127254
C      1.438268   -3.104309    1.731841
C      1.530110   -2.863563    3.108085
C      0.376068   -2.550142    3.851597
C     -0.875976   -2.458753    3.223946
C     -0.957071   -2.652858    1.836871
H     -2.732863   -0.547395    2.715658
H     -4.351094   -1.171049    3.112208
H     -4.533606   -0.087978    0.387802
H     -5.322801    0.453654    1.882706
H     -4.130254    2.268000    1.606288
H     -3.426589    1.677742   -0.646489
H     -1.718765    3.272799    1.309536
H     -2.570477    3.811229   -0.197059
H      0.185261    3.204518    0.007589
H     -0.760798    3.160445   -1.545768
H      1.151619    0.408017    1.264156
H      3.283863   -0.726119    0.898899
H      2.748569   -0.419411   -3.354728
H     -2.022264   -0.186154   -0.667945
H     -1.332062    0.167861    0.983088
H     -2.569905   -2.945153   -1.116818
H      2.316318   -3.362419    1.152911
H      2.488840   -2.932694    3.602043
H      0.451359   -2.391406    4.917556
H     -1.756195   -2.264049    3.820529
