52

C     -1.269894    1.412872   -3.742770
O     -0.541528    0.404957   -3.051020
C      0.573059   -0.268152   -3.572176
C      1.256095   -1.189432   -2.748996
N      0.863773   -1.399692   -1.380040
C      0.454224   -2.731857   -0.925108
C      0.998367   -2.987323    0.483915
N      0.627796   -1.880869    1.397741
C      1.076835   -2.177931    2.779530
C      0.048145   -1.691171    3.814862
C      0.143598   -0.206316    4.054354
O      1.163772    0.240758    4.648205
C     -0.911541    0.736336    3.607042
C     -2.241064    0.441439    3.303385
N     -2.913567    1.565708    2.971141
C     -2.025693    2.570629    3.051641
C     -0.791771    2.108366    3.435993
C      0.304204    2.971576    3.559903
C      0.105099    4.336942    3.285432
C     -1.169550    4.811133    2.903119
C     -2.255040    3.920168    2.781901
C      1.216626   -0.612942    0.909484
C      0.649907   -0.268168   -0.468516
C      2.357848   -1.886064   -3.262761
C      2.784915   -1.667985   -4.574881
C      2.115345   -0.753941   -5.388674
C      1.016248   -0.056915   -4.896778
H     -1.759643    0.984339   -4.637487
H     -2.050064    1.818951   -3.067107
H     -0.593618    2.242254   -4.037754
H      0.831347   -3.524943   -1.609357
H     -0.657357   -2.787889   -0.912390
H      0.560611   -3.945226    0.842653
H      2.105862   -3.105262    0.438120
H      1.175265   -3.276280    2.939927
H      2.084409   -1.751056    2.992387
H     -0.974607   -1.998367    3.501135
H      0.255591   -2.201308    4.785510
H     -2.707741   -0.535602    3.339062
H     -3.920270    1.636980    2.714953
H      1.285979    2.612220    3.835803
H      0.938275    5.026356    3.360625
H     -1.311690    5.863980    2.694382
H     -3.234331    4.273653    2.483132
H      0.971298    0.228006    1.590429
H      2.328034   -0.688236    0.847088
H     -0.442558   -0.064237   -0.382215
H      1.157213    0.646967   -0.848686
H      2.893878   -2.586274   -2.637346
H      3.638338   -2.203830   -4.958706
H      2.448885   -0.584827   -6.404301
H      0.510839    0.636835   -5.552701
