52

O      0.310394    5.102709    2.279164
C      0.333761    3.865512    2.046915
C     -0.234152    3.371468    0.743675
C      0.867114    2.757884   -0.140844
N      0.321303    2.142356   -1.364355
C     -0.147383    0.758035   -1.142920
C     -1.102868    0.334621   -2.274390
C     -1.571215   -1.107960   -2.058820
N     -0.439028   -2.017930   -1.824750
C     -0.675769   -3.440716   -1.810376
C     -1.721491   -3.980522   -1.044232
C     -1.959508   -5.357588   -1.038387
C     -1.160189   -6.224159   -1.802703
N     -1.410009   -7.641421   -1.797318
O     -2.426061   -8.169360   -1.033667
O     -0.722668   -8.411995   -2.497389
C     -0.114590   -5.683065   -2.572306
C      0.124144   -4.306507   -2.575912
C      0.936155   -1.498278   -1.853751
C      1.062089   -0.212584   -1.020279
C      0.882596    2.925067    3.060311
C      0.525131    1.570645    3.098759
S      1.314749    0.810996    4.380416
C      2.123150    2.181209    4.900527
C      3.015789    2.285399    5.964103
C      3.607880    3.528771    6.213978
C      3.310068    4.632198    5.395537
C      2.410368    4.504575    4.324363
C      1.799572    3.261285    4.086078
H     -1.043161    2.640866    0.950168
H     -0.700912    4.221945    0.196717
H      1.566431    3.566949   -0.442591
H      1.468639    2.022654    0.436316
H     -0.461410    2.739389   -1.722915
H     -0.734602    0.702177   -0.198914
H     -0.589725    0.421181   -3.257732
H     -1.992357    1.002182   -2.292103
H     -2.253795   -1.131652   -1.183326
H     -2.139122   -1.440225   -2.954787
H     -2.345868   -3.339417   -0.436707
H     -2.771225   -5.743597   -0.435463
H      0.516565   -6.323919   -3.176054
H      0.925445   -3.915960   -3.189392
H      1.222345   -1.288884   -2.908006
H      1.649189   -2.250557   -1.449117
H      1.180636   -0.495840    0.048520
H      2.002816    0.295981   -1.323791
H     -0.156976    1.072214    2.425270
H      3.249601    1.427422    6.581004
H      4.304808    3.638336    7.034549
H      3.783324    5.586088    5.588419
H      2.222996    5.363957    3.699869
