35

C     -1.611086    2.964666   -3.172286
N     -1.206673    1.580035   -2.964844
C     -0.731996    1.114587   -1.694831
O     -0.674322    1.906998   -0.714461
C     -0.348697   -0.333807   -1.519403
C     -1.598150   -1.206180   -1.305199
C     -2.161358   -0.953113    0.055615
O     -3.369848   -0.948315    0.232745
C     -1.229815   -0.717201    1.203277
C      0.224638   -1.109193    0.823466
C      1.262139   -0.820379    1.974983
C      1.436570    0.697397    2.212410
C      0.817830   -1.483933    3.300158
C      2.641477   -1.414186    1.599420
N      0.661845   -0.459219   -0.439417
H     -0.753472    3.641174   -2.973038
H     -1.944846    3.107083   -4.221736
H     -2.450611    3.217673   -2.491027
H     -1.271963    0.911709   -3.765506
H      0.111456   -0.661963   -2.480100
H     -2.358840   -0.988661   -2.087489
H     -1.322193   -2.279490   -1.386818
H     -1.298394    0.350562    1.492452
H     -1.580639   -1.342567    2.050515
H      0.215054   -2.212676    0.658286
H      1.733342    1.216334    1.276354
H      2.227687    0.883034    2.971005
H      0.502334    1.160284    2.590644
H     -0.080736   -0.986833    3.721913
H      0.591985   -2.560496    3.141953
H      1.616272   -1.405946    4.069718
H      2.549062   -2.491255    1.341645
H      3.356797   -1.323022    2.445576
H      3.093584   -0.878761    0.738416
H      1.461341   -1.012943   -0.826606
