35

C     -3.736946   -1.016724   -3.679980
N     -3.000259   -0.430519   -2.567691
C     -3.073821   -0.975491   -1.242866
O     -3.805155   -1.976374   -1.010416
C     -2.306270   -0.341334   -0.111832
C     -2.986528    0.971485    0.294816
C     -2.146217    1.668516    1.316257
O     -2.668106    2.219973    2.273349
C     -0.667833    1.775330    1.090660
C     -0.087806    0.421757    0.598051
C      1.437760    0.517172    0.193876
C      1.627047    1.291241   -1.131101
C      2.032964   -0.902660    0.019032
C      2.259733    1.222544    1.299897
N     -0.909136   -0.100983   -0.520689
H     -4.826299   -0.987362   -3.467128
H     -3.415574   -2.068683   -3.831508
H     -3.537007   -0.442666   -4.609240
H     -2.404786    0.409193   -2.747302
H     -2.324388   -1.038553    0.759093
H     -3.097294    1.641465   -0.585540
H     -3.996957    0.759123    0.709205
H     -0.187639    2.072585    2.047347
H     -0.495511    2.575068    0.342334
H     -0.158747   -0.286646    1.457063
H      1.067204    0.808928   -1.960170
H      1.283956    2.341938   -1.040407
H      2.701211    1.314343   -1.416532
H      1.832103   -1.527545    0.915674
H      1.623980   -1.417857   -0.873885
H      3.134357   -0.855196   -0.124754
H      3.348717    1.167625    1.083157
H      2.077539    0.744169    2.286377
H      2.003719    2.300737    1.370262
H     -0.527063   -1.030786   -0.805500
