93

C      0.847829   -4.739894   -4.006380
C      1.701127   -3.600297   -4.628486
C      3.142865   -3.777184   -4.167721
C      3.187009   -5.140694   -3.602546
O      4.230509   -5.659193   -3.232494
C      1.863511   -5.833218   -3.539486
C      1.874671   -7.016489   -4.527972
C      1.585546   -6.355169   -2.103786
C      1.426227   -5.233404   -1.052815
C      0.696985   -3.961402   -1.574577
C     -0.158292   -3.299518   -0.493962
C     -1.441945   -2.770151   -0.784519
C     -2.161381   -2.094565    0.213191
C     -1.595781   -1.864095    1.476300
O     -2.264817   -1.148354    2.478981
C     -3.194667   -0.121116    2.267245
O     -3.337628    0.402123    1.127099
N     -3.945206    0.370630    3.382011
C     -5.028201    1.340761    3.252365
C     -4.506560    2.771275    3.415278
C     -3.996774    3.341349    2.123833
O     -4.810591    3.859520    1.311681
N     -2.595216    3.328560    1.822282
C     -1.933901    4.488724    1.228178
P     -0.971915    3.996271   -0.237945
O     -1.939455    3.670846   -1.359983
O     -0.000841    5.320193   -0.699992
C      0.871176    4.898764   -1.720958
C      1.776957    6.060011   -2.103579
O      0.025517    2.669261    0.180830
C     -0.266364    1.579458   -0.658664
C      0.670707    0.433997   -0.321082
P     -0.863732    5.287091    2.473094
O     -0.868172    6.777653    2.195620
O      0.745229    4.728346    2.325955
C      0.923301    3.609331    3.160870
C      2.303218    3.022910    2.908347
O     -1.496152    4.924760    4.025854
C     -1.881775    6.113509    4.666058
C     -2.453680    5.771993    6.035618
C     -0.329521   -2.380415    1.758988
C      0.390242   -3.070311    0.781980
C     -2.090723   -2.956432   -2.135403
C     -1.049315   -3.143662   -3.238590
C     -0.102064   -4.289405   -2.856236
H      0.187284   -5.146112   -4.807577
H      1.354785   -2.577844   -4.386232
H      1.667648   -3.696912   -5.734786
H      3.402053   -3.036619   -3.381464
H      3.847410   -3.688232   -5.022986
H      0.889267   -7.528244   -4.530081
H      2.654158   -7.758599   -4.249667
H      2.080453   -6.664886   -5.561251
H      0.655161   -6.965614   -2.114669
H      2.401817   -7.036678   -1.779194
H      2.433214   -4.944373   -0.676717
H      0.873757   -5.667294   -0.192574
H      1.469069   -3.210050   -1.847911
H     -3.168674   -1.767773    0.002201
H     -3.744879   -0.027788    4.324264
H     -5.765766    1.145772    4.060135
H     -5.567192    1.208746    2.288378
H     -3.708088    2.807456    4.186483
H     -5.333774    3.415127    3.779929
H     -2.009351    2.566331    2.225741
H     -2.687760    5.233336    0.900464
H      0.302775    4.588957   -2.625885
H      1.525402    4.065369   -1.369010
H      2.433898    6.325789   -1.243693
H      2.415734    5.767989   -2.964922
H      1.171521    6.948761   -2.388656
H     -1.312498    1.231242   -0.499711
H     -0.110497    1.844959   -1.729694
H      0.541266    0.138458    0.743200
H      0.447915   -0.438601   -0.971424
H      1.727460    0.741367   -0.479956
H      0.175738    2.814708    2.944998
H      0.856986    3.907551    4.232152
H      3.084891    3.740675    3.235461
H      2.418927    2.078574    3.478447
H      2.433772    2.803943    1.826431
H     -2.668883    6.646097    4.083088
H     -0.996915    6.776206    4.815167
H     -1.716570    5.168774    6.613193
H     -2.677468    6.705323    6.598204
H     -3.392061    5.188062    5.923299
H      0.113463   -2.217990    2.733336
H      1.388694   -3.412537    1.019891
H     -2.710320   -2.064314   -2.388801
H     -2.763622   -3.843601   -2.093689
H     -1.567311   -3.379365   -4.192315
H     -0.502105   -2.186740   -3.362978
H     -0.760213   -5.160363   -2.632310
