57

C     -1.068903   -1.033833    0.470461
C     -2.198149   -0.087197   -0.068700
C     -2.985911    0.656640    1.029826
C     -1.706855    0.882538   -1.161791
O     -0.730788    1.755564   -0.646144
Si    -0.100135    2.796243   -1.887816
C      0.310851    4.417519   -1.052099
C     -1.358425    3.197992   -3.222212
C      1.478697    2.039377   -2.646328
C      1.115472    1.068018   -3.785416
C      2.372583    3.158630   -3.210201
C      2.240455    1.276272   -1.550496
C     -1.680672   -2.380875    0.948480
C     -0.780936   -3.223597    1.880944
C      0.700375   -2.815084    1.822079
C      1.538511   -3.743301    2.716608
C      0.846722   -1.333425    2.253356
C      2.247395   -0.831901    2.022248
O      2.844176   -0.204149    2.940323
O      2.872743   -1.050089    0.790373
C      4.220666   -0.672158    0.538422
C     -0.143892   -0.445838    1.532194
O     -0.163441    0.745965    1.800998
H     -0.411245   -1.285552   -0.392100
H     -2.940883   -0.738348   -0.584778
H     -3.965217    0.991591    0.623927
H     -2.449673    1.561269    1.383806
H     -3.183665   -0.002710    1.898812
H     -1.301933    0.277771   -2.003381
H     -2.588662    1.457066   -1.527649
H      1.084616    4.253318   -0.273964
H      0.684155    5.142777   -1.803118
H     -0.605794    4.825655   -0.579273
H     -2.244114    3.678883   -2.757492
H     -0.905071    3.898139   -3.955747
H     -1.672721    2.272081   -3.747169
H      2.035160    0.619195   -4.220022
H      0.481065    0.236010   -3.418805
H      0.577045    1.597469   -4.601166
H      3.267389    2.730430   -3.711240
H      2.730044    3.828061   -2.398517
H      1.816352    3.768466   -3.954158
H      1.621853    0.442398   -1.154357
H      3.181085    0.845773   -1.958208
H      2.503700    1.951350   -0.706301
H     -2.643745   -2.205085    1.475595
H     -1.926374   -2.987045    0.047454
H     -0.886326   -4.296812    1.608813
H     -1.144561   -3.113879    2.928390
H      1.053938   -2.942221    0.773129
H      2.616229   -3.495388    2.627927
H      1.408108   -4.801331    2.401814
H      1.232853   -3.647806    3.780835
H      0.617008   -1.261536    3.341551
H      4.485828   -0.944394   -0.504091
H      4.339203    0.424548    0.667003
H      4.900945   -1.207550    1.234888
