28

C     -0.496633   -0.760950    1.439366
C     -1.486181   -1.422747    2.379009
C     -2.664680   -0.499957    2.161301
O     -3.639320   -0.470994    2.895317
C     -2.515092    0.382036    0.941908
C     -1.357360   -0.340151    0.276104
C     -0.340056    0.192619   -0.746966
C     -0.862532    0.018242   -2.185788
C      0.062566    1.658556   -0.496954
C      0.813068   -0.764012   -0.436827
C      2.032052   -0.955332   -1.291398
C      0.645222   -1.398808    0.739847
H     -0.084613    0.128471    1.975847
H     -1.127901   -1.388164    3.430194
H     -1.731664   -2.460505    2.065578
H     -3.424392    0.358635    0.303860
H     -2.252321    1.419372    1.239941
H     -1.807128   -1.264015   -0.179037
H     -0.134871    0.418461   -2.922867
H     -1.820547    0.566941   -2.311258
H     -1.037002   -1.054565   -2.418502
H      0.852682    1.965935   -1.214887
H      0.460292    1.807461    0.527849
H     -0.814074    2.326413   -0.635608
H      2.073205   -2.004128   -1.652496
H      2.943658   -0.736721   -0.696574
H      2.013173   -0.273445   -2.165490
H      1.371005   -2.066034    1.193566
