28

C      1.095295    0.487328   -1.874363
C      2.347121   -0.105958   -2.491657
C      3.330004    0.233620   -1.393282
O      4.540953    0.181623   -1.536249
C      2.661856    0.642373   -0.099564
C      1.252366    0.170634   -0.409392
C     -0.081957    0.631528    0.201003
C     -0.424303   -0.187884    1.459954
C     -0.117409    2.139062    0.516699
C     -0.998548    0.285233   -0.974141
C     -2.497573    0.235784   -0.916708
C     -0.308864    0.072784   -2.112078
H      1.136369    1.589607   -2.053072
H      2.606124    0.403331   -3.444598
H      2.266793   -1.206397   -2.625905
H      2.719454    1.743004    0.039115
H      3.085893    0.098497    0.771568
H      1.282045   -0.946836   -0.293856
H     -0.525663   -1.267691    1.216543
H     -1.379311    0.156758    1.909539
H      0.378466   -0.071089    2.219248
H     -1.125584    2.429750    0.881768
H      0.623872    2.383305    1.307022
H      0.107799    2.752986   -0.379383
H     -2.923659    0.937061   -1.664558
H     -2.845357   -0.794209   -1.140800
H     -2.864742    0.529975    0.087277
H     -0.756590   -0.114177   -3.082853
