79

C      1.398294    3.380800    0.560752
C      0.122023    4.100109    0.073745
C      0.471912    5.297412   -0.817769
O     -0.584346    4.576502    1.209512
C     -1.981856    4.403792    1.073540
C     -2.388374    3.064795    1.623325
C     -2.249716    2.800907    2.992888
C     -2.576547    1.543617    3.505837
C     -3.046224    0.532373    2.661541
O     -3.348077   -0.717393    3.222873
C     -3.774344   -1.851775    2.475696
C     -3.196433    0.800303    1.287737
C     -2.865773    2.057485    0.773966
C      1.058021    2.071926    1.296610
C      2.276290    1.207414    1.529034
O      2.169732    0.259830    2.294183
C      3.631546    1.522310    0.897389
C      4.457957    2.344624    1.904498
C      4.410737    0.210480    0.574947
C      3.784277   -0.628338   -0.512157
C      4.376535   -1.768966   -0.903658
C      3.896679   -2.607888   -2.069483
C      4.017484   -1.838774   -3.392358
C      2.481650   -3.169999   -1.854315
O      1.530557   -2.137648   -1.966686
Si    -0.065018   -2.726519   -1.628862
C     -0.430765   -4.311658   -2.561477
C     -0.233956   -3.060773    0.205491
C     -1.269229   -1.360535   -2.170071
C     -1.129724   -1.132993   -3.685110
C     -0.911913   -0.063060   -1.426312
C     -2.715261   -1.766097   -1.840516
C      3.430006    2.349468   -0.361870
O      4.313830    2.376980   -1.258609
O      2.271831    3.109080   -0.531322
H      1.926529    4.058243    1.267157
H     -0.463008    3.371951   -0.540796
H      1.143716    5.998130   -0.278047
H      0.968466    4.958019   -1.751652
H     -0.453359    5.843345   -1.100232
H     -2.338889    4.552542    0.027493
H     -2.484766    5.192204    1.673223
H     -1.877382    3.566707    3.661894
H     -2.454119    1.350715    4.563499
H     -2.996683   -2.132658    1.736907
H     -4.731980   -1.632397    1.957029
H     -3.930841   -2.704163    3.168259
H     -3.562453    0.044013    0.609882
H     -2.978057    2.244176   -0.286130
H      0.604172    2.321515    2.281306
H      0.321948    1.481483    0.714305
H      3.930347    3.277224    2.190578
H      5.441764    2.624560    1.469352
H      4.643094    1.757622    2.829906
H      5.443960    0.468051    0.252870
H      4.510682   -0.409088    1.493568
H      2.886465   -0.277405   -1.008102
H      5.272797   -2.099706   -0.383688
H      4.582757   -3.481293   -2.140277
H      3.370907   -0.935555   -3.393016
H      3.718595   -2.491142   -4.240812
H      5.069552   -1.520423   -3.553320
H      2.444610   -3.653998   -0.851822
H      2.304416   -3.942683   -2.635728
H     -0.236227   -4.164458   -3.643698
H     -1.491154   -4.596427   -2.410276
H      0.214226   -5.128970   -2.178391
H     -0.004493   -2.139085    0.777540
H      0.468776   -3.864870    0.507182
H     -1.267617   -3.391463    0.428308
H     -1.783100   -0.297796   -4.014683
H     -1.426587   -2.042592   -4.247620
H     -0.082732   -0.880524   -3.952938
H      0.137843    0.238876   -1.630247
H     -1.577494    0.766246   -1.746297
H     -1.030198   -0.201905   -0.331750
H     -2.839566   -1.949966   -0.753634
H     -3.001596   -2.690121   -2.384413
H     -3.421518   -0.959492   -2.135340
