79

C      2.518996   -2.928626    1.597330
C      2.502894   -4.472228    1.568298
C      2.989815   -5.044520    0.230837
O      1.168234   -4.907176    1.777122
C      1.067686   -5.710305    2.932469
C     -0.359269   -6.146816    3.095863
C     -0.764459   -7.428081    2.691007
C     -2.102184   -7.814743    2.812173
C     -3.056945   -6.927146    3.323331
O     -4.386701   -7.363038    3.422102
C     -5.461824   -6.563513    3.905138
C     -2.653900   -5.636044    3.716018
C     -1.314769   -5.250019    3.597721
C      3.923467   -2.333613    1.469630
C      3.822719   -0.836001    1.532587
O      4.664514   -0.215519    2.166985
C      2.735619   -0.079929    0.770629
C      2.043919    0.893728    1.749843
C      3.431195    0.683853   -0.394703
C      2.522132    1.632465   -1.137156
C      2.090689    1.374842   -2.383682
C      1.113486    2.274272   -3.107895
C      1.708346    3.670470   -3.336953
C     -0.225150    2.345313   -2.356551
O     -1.175438    3.015157   -3.151711
Si    -2.629915    3.322074   -2.247977
C     -4.074028    2.978648   -3.385634
C     -2.834693    2.187374   -0.762318
C     -2.643641    5.146942   -1.706558
C     -3.936221    5.451078   -0.928829
C     -1.426739    5.426808   -0.807715
C     -2.569202    6.046155   -2.952814
C      1.682146   -1.045656    0.229409
O      0.764977   -0.621889   -0.522837
O      1.682933   -2.401875    0.572070
H      2.102724   -2.611728    2.581137
H      3.215740   -4.828200    2.354170
H      4.072119   -4.846695    0.085443
H      2.847200   -6.146228    0.227097
H      2.417677   -4.615526   -0.619121
H      1.373548   -5.134043    3.835484
H      1.726372   -6.604186    2.843819
H     -0.046830   -8.128963    2.282488
H     -2.400024   -8.808960    2.503941
H     -6.397128   -7.159257    3.876157
H     -5.269036   -6.256111    4.955123
H     -5.589583   -5.666907    3.261398
H     -3.366365   -4.924577    4.112110
H     -1.021309   -4.250767    3.895879
H      4.572167   -2.712558    2.289521
H      4.379640   -2.603973    0.495298
H      1.677854    0.345901    2.646067
H      1.167892    1.388341    1.275835
H      2.749943    1.684686    2.084697
H      4.271302    1.291856    0.005747
H      3.883491   -0.051142   -1.098062
H      2.194194    2.531863   -0.624615
H      2.416938    0.468730   -2.887645
H      0.920657    1.822034   -4.106463
H      1.022907    4.280105   -3.963408
H      2.680965    3.588026   -3.867995
H      1.869974    4.199977   -2.374224
H     -0.061441    2.866562   -1.386071
H     -0.570773    1.304999   -2.161344
H     -4.045136    1.915345   -3.702074
H     -4.008626    3.625602   -4.284152
H     -5.027192    3.173587   -2.853454
H     -2.791734    1.130368   -1.095275
H     -2.033135    2.374082   -0.019251
H     -3.819977    2.374483   -0.289900
H     -3.955882    6.515912   -0.610766
H     -4.831858    5.264520   -1.559136
H     -4.007638    4.820794   -0.016667
H     -1.427893    6.485488   -0.469528
H     -0.478895    5.247267   -1.358229
H     -1.443407    4.779735    0.093836
H     -2.544159    7.117203   -2.659698
H     -1.652746    5.828269   -3.542191
H     -3.453304    5.892975   -3.606452
