44

O     -2.932205   -3.342210   -1.483602
C     -2.669833   -2.910256   -0.327666
C     -1.224191   -2.885725    0.103063
C     -0.627916   -1.463993    0.010450
C      0.753147   -1.381170    0.618282
C      1.719639   -2.385979    0.696800
N      2.864884   -1.902779    1.229302
C      2.641269   -0.600799    1.473473
C      3.540396    0.326218    1.998967
C      3.103737    1.655418    2.145950
C      1.795213    2.025008    1.763617
C      0.910531    1.068431    1.233515
C      1.368961   -0.243863    1.107621
C     -0.601917   -0.961941   -1.420728
C      0.231642   -1.561526   -2.384599
C      0.235963   -1.096742   -3.702914
C     -0.591921   -0.034795   -4.074209
C     -1.427167    0.563681   -3.128018
C     -1.435233    0.103147   -1.808113
C     -3.778682   -2.408824    0.533571
C     -5.091396   -2.357553    0.022349
C     -6.145757   -1.885941    0.809889
C     -5.907870   -1.459692    2.116994
C     -4.614858   -1.504758    2.639752
C     -3.555598   -1.975762    1.857922
H     -0.644188   -3.582936   -0.540263
H     -1.134930   -3.277262    1.138278
H     -1.275127   -0.796628    0.620025
H      1.599731   -3.409822    0.368926
H      3.748736   -2.433253    1.396170
H      4.543970    0.035151    2.280996
H      3.776507    2.400371    2.550400
H      1.471631    3.051491    1.876615
H     -0.090700    1.347919    0.932772
H      0.877549   -2.387557   -2.116441
H      0.880829   -1.561375   -4.437557
H     -0.587632    0.323136   -5.095623
H     -2.070420    1.384489   -3.417751
H     -2.093172    0.576879   -1.090179
H     -5.305802   -2.678759   -0.989220
H     -7.148909   -1.850415    0.404869
H     -6.725501   -1.094455    2.724917
H     -4.431849   -1.173847    3.654003
H     -2.570480   -1.994075    2.300853
