44

O     -0.863855    2.166311   -0.952958
C      0.332793    1.966109   -1.297195
C      1.406497    1.997840   -0.233277
C      1.322323    0.850690    0.805164
C     -0.021501    0.776170    1.505547
C     -1.046086   -0.160876    1.337625
N     -2.106206    0.146188    2.118234
C     -1.771523    1.265856    2.778456
C     -2.549066    1.964578    3.701007
C     -2.000547    3.122891    4.279941
C     -0.701537    3.550762    3.929024
C      0.059994    2.825140    2.995161
C     -0.511035    1.680878    2.433759
C      1.803048   -0.485142    0.247493
C      2.936710   -1.106385    0.808422
C      3.411775   -2.317751    0.297066
C      2.764413   -2.925971   -0.779498
C      1.638024   -2.325979   -1.344139
C      1.158553   -1.115605   -0.836007
C      0.631750    1.699747   -2.726922
C     -0.322658    1.038374   -3.522395
C     -0.060889    0.768127   -4.868666
C      1.149077    1.165907   -5.440217
C      2.096315    1.841323   -4.668126
C      1.840835    2.112679   -3.320217
H      1.327806    2.972759    0.293365
H      2.420473    1.973122   -0.679580
H      2.041121    1.144668    1.602254
H     -1.027558   -1.024118    0.689486
H     -3.003229   -0.383667    2.189607
H     -3.543343    1.627669    3.964348
H     -2.577298    3.688799    4.999847
H     -0.288163    4.442125    4.382631
H      1.057861    3.147796    2.730130
H      3.459637   -0.653354    1.641383
H      4.284474   -2.784271    0.735585
H      3.133787   -3.863657   -1.174136
H      1.132213   -2.801065   -2.174816
H      0.272449   -0.688800   -1.279665
H     -1.264345    0.713916   -3.096720
H     -0.796999    0.249067   -5.468847
H      1.349616    0.957527   -6.483201
H      3.027415    2.162893   -5.116750
H      2.578979    2.670974   -2.761831
