35

C     -0.811824   -0.028727   -0.776790
C     -1.500490    0.800017    0.243795
O     -2.603364    0.563732    0.802547
C     -0.768046    2.072315    0.221671
C      0.432792    1.892003   -0.468779
C      1.325357    2.948259   -0.645599
C      0.952467    4.220253   -0.178788
C     -0.277342    4.407918    0.486707
C     -1.149675    3.325856    0.695194
C      0.654696    0.420171   -0.645967
C      1.345085   -0.071840    0.629701
O      2.549606    0.241631    0.840762
O      0.650776   -0.854466    1.559964
C      1.249664   -1.337734    2.755401
C      1.281964   -0.311200   -1.849118
C      0.509662   -1.617184   -1.767705
C      0.853532   -2.854623   -2.311830
C     -0.016958   -3.940980   -2.113485
C     -1.219543   -3.774133   -1.395315
C     -1.562644   -2.520436   -0.863242
C     -0.661351   -1.472748   -1.028093
H     -1.241717    0.353569   -1.739310
H      2.288435    2.788289   -1.112428
H      1.622899    5.058899   -0.314293
H     -0.549186    5.392416    0.844556
H     -2.095155    3.465341    1.202921
H      1.586246   -0.485553    3.382984
H      0.502917   -1.929907    3.322885
H      2.114946   -1.989229    2.510004
H      2.377156   -0.469417   -1.742346
H      1.056614    0.213774   -2.802823
H      1.769941   -2.976351   -2.874353
H      0.232037   -4.910062   -2.525873
H     -1.891678   -4.612971   -1.269867
H     -2.503505   -2.370647   -0.350164
