58

C      2.523338    2.501892    0.136766
C      3.235667    2.662922    1.490551
C      3.730624    1.274108    1.896541
C      3.366506    0.338905    0.744582
C      3.183796   -1.115753    1.186751
C      2.167682    0.999413    0.040727
C      0.752524    0.663913    0.650786
O      0.272004   -0.541765    0.046147
C     -0.026669   -1.726430    0.734864
O      0.006892   -1.767805    1.994049
C     -0.411230   -2.935012   -0.008433
C     -0.524989   -2.935678   -1.343446
C     -0.923388   -4.124855   -2.135477
C     -0.776039   -5.442161   -1.653061
C     -1.155877   -6.530845   -2.444572
C     -1.677594   -6.321521   -3.722886
C     -1.813444   -5.022630   -4.216649
C     -1.433753   -3.930313   -3.430786
C     -0.272061    1.839250    0.409027
C     -1.659041    1.661201    1.117985
C     -2.550502    0.547492    0.537496
C     -1.540698    1.504429    2.643164
C     -0.460491    2.119962   -1.105435
C      0.612732    3.092870   -1.325871
O      0.956822    3.517963   -2.418330
C      1.272719    3.399800   -0.030355
C      1.579197    4.897694    0.100780
O      0.328733    3.010172    0.936736
H      3.253362    2.743782   -0.670907
H      4.087132    3.371666    1.395596
H      2.544417    3.045709    2.273201
H      3.223362    0.961529    2.836463
H      4.829338    1.276038    2.068436
H      4.216382    0.350401    0.022716
H      2.813657   -1.729192    0.338677
H      4.162497   -1.528919    1.510716
H      2.486850   -1.193015    2.044082
H      2.167347    0.698522   -1.031793
H      0.875491    0.540402    1.746851
H     -0.630549   -3.824428    0.566195
H     -0.361490   -2.010619   -1.884779
H     -0.347855   -5.641790   -0.680743
H     -1.039301   -7.539107   -2.068286
H     -1.970352   -7.166109   -4.333227
H     -2.212698   -4.861251   -5.209794
H     -1.547151   -2.930308   -3.831736
H     -2.213870    2.613272    0.954558
H     -2.520328    0.526344   -0.570497
H     -2.266809   -0.447318    0.926338
H     -3.604609    0.724813    0.840247
H     -2.546794    1.580964    3.108229
H     -0.905085    2.306013    3.074485
H     -1.112869    0.518258    2.915233
H     -0.322058    1.215765   -1.736075
H     -1.433711    2.606123   -1.333691
H      2.350175    5.201781   -0.639225
H      0.658391    5.494815   -0.074886
H      1.951093    5.133613    1.119672
