95

C     -0.653903    1.772178    0.103208
N     -2.107888    1.743333    0.318651
C     -2.469317    0.717247   -0.661739
N     -3.589007    0.046369   -0.697755
C     -4.738693    0.413052    0.012767
O     -5.325688    1.487269   -0.276599
O     -5.389239   -0.585779    0.757497
C     -6.577238   -1.306361    0.372018
C     -7.810221   -0.512794    0.896560
C     -6.671897   -1.464337   -1.174517
C     -6.554170   -2.713048    1.025234
N     -1.394936    0.390456   -1.544765
C     -1.235624   -0.767421   -2.398574
O     -0.234868   -0.868075   -3.121263
O     -2.255395   -1.743468   -2.439772
C     -2.220417   -2.990517   -3.130943
C     -0.972735   -3.789191   -2.684432
C     -2.180467   -2.748286   -4.649949
C     -3.506596   -3.806875   -2.763942
C     -0.431212    1.483585   -1.370824
C     -0.784305    2.501870   -2.418336
O     -1.843994    3.121369   -2.466915
C      0.149941    2.445897   -3.568803
C      1.352208    1.673450   -3.012650
N      0.959324    1.184700   -1.690071
C      1.954086    1.242276   -0.632558
N      2.925776    0.386127   -0.755919
C      3.854063   -0.143740    0.156170
O      3.493189   -0.333558    1.342920
O      5.148565   -0.423184   -0.318583
C      6.369400   -0.772826    0.364306
C      6.293110   -0.496845    1.876365
C      6.682033   -2.292289    0.100495
C      7.504933    0.110514   -0.240797
N      1.714583    2.119028    0.516679
C      2.752560    2.407694    1.514010
O      3.950883    2.434177    1.182307
O      2.421801    2.586404    2.885604
C      3.327681    2.680572    4.024718
C      3.738820    1.250387    4.460858
C      2.576412    3.372699    5.180038
C      4.585795    3.534190    3.715135
C      0.350907    2.721230    0.735578
C      0.303724    4.182604    0.210273
O      1.246115    4.349135   -0.863299
C      1.107078    5.282360   -1.890591
N      2.258157    5.675070   -2.628695
O     -0.026851    5.715984   -2.212033
H     -0.311724    0.852273    0.668059
H     -2.673393    2.574734    0.589792
H     -8.043120   -0.781120    1.950385
H     -8.734497   -0.620623    0.268243
H     -7.517086    0.570672    0.949569
H     -7.523386   -2.105526   -1.498682
H     -6.752488   -0.477937   -1.648490
H     -5.736703   -1.975023   -1.535639
H     -5.649655   -3.289554    0.681963
H     -6.473104   -2.656651    2.144979
H     -7.476878   -3.307228    0.773263
H     -0.037149   -3.194950   -2.793064
H     -0.829563   -4.711493   -3.296852
H     -1.031252   -4.085142   -1.614740
H     -3.120679   -2.267576   -5.058843
H     -1.371056   -2.029035   -4.924664
H     -2.065848   -3.711543   -5.195111
H     -4.412525   -3.597435   -3.417127
H     -3.802760   -3.593981   -1.685605
H     -3.286264   -4.906462   -2.888025
H     -0.307537    1.862723   -4.419046
H      0.423264    3.471036   -3.941678
H      2.198794    2.378295   -2.935757
H      1.634174    0.818279   -3.642449
H      6.111786    0.584270    2.104902
H      5.530936   -1.114158    2.366853
H      7.250121   -0.773638    2.343902
H      5.991901   -2.763138   -0.652301
H      6.561632   -2.915270    1.028733
H      7.728019   -2.404004   -0.282203
H      7.156386    1.178638   -0.263847
H      7.773294   -0.174239   -1.297433
H      8.438613   -0.005482    0.358266
H      4.575442    1.270852    5.211213
H      2.876528    0.669601    4.848853
H      4.125500    0.679427    3.607620
H      3.150783    3.310735    6.129476
H      2.411249    4.452834    4.941613
H      1.581391    2.928080    5.348050
H      5.378545    2.950228    3.193258
H      5.040123    3.871521    4.675345
H      4.355354    4.413100    3.062526
H      0.091505    2.783429    1.837625
H      0.650995    4.853244    1.055833
H     -0.726549    4.465129   -0.109088
H      2.144428    6.273369   -3.486705
H      3.195846    5.367178   -2.310210
