34

C      1.065420   -0.397848   -4.867463
O      0.992446   -0.677537   -3.473630
C     -0.050041   -0.250953   -2.638957
C     -0.015262   -0.581308   -1.283585
C     -1.001463   -0.201173   -0.413347
C     -2.083454    0.570044   -0.854083
C     -2.153402    0.919647   -2.210888
C     -1.146039    0.509955   -3.103743
C     -0.678548   -0.682823    0.979373
C     -1.737979   -1.704118    1.477342
C     -3.058013   -1.106974    1.731820
N     -4.097095   -0.639430    1.934253
C      0.698992   -1.429472    0.742410
O      0.981592   -1.287726   -0.649398
C      1.873398   -0.878489    1.567143
C      1.916819    0.621155    1.491212
O      2.982869    1.194655    1.329643
C      0.653983    1.421670    1.638885
C     -0.544133    0.517190    1.964072
H      0.189147   -0.835370   -5.390860
H      1.101756    0.699337   -5.035088
H      1.989471   -0.851559   -5.280519
H     -2.849796    0.903804   -0.168603
H     -2.984162    1.512322   -2.571313
H     -1.225199    0.795367   -4.143780
H     -1.863653   -2.517041    0.729450
H     -1.386196   -2.168740    2.423443
H      0.614080   -2.517326    0.960879
H      2.826547   -1.313613    1.194535
H      1.752138   -1.180100    2.629673
H      0.781674    2.162228    2.457402
H      0.462366    1.975852    0.694943
H     -1.467723    1.135441    1.954123
H     -0.423453    0.130351    3.000349
