36

C      0.030785   -0.703390    0.630745
C     -0.120357   -2.225381    0.550317
C      0.865596   -2.777784   -0.488273
C      1.230181   -4.210616   -0.425127
O      2.057725   -4.697485   -1.245079
O      0.648025   -5.027021    0.550203
C      0.948848   -6.411960    0.671882
C      1.369983   -1.979676   -1.470173
C      0.962460   -0.556838   -1.577547
O      1.496138    0.219527   -2.413003
C     -0.177812   -0.123180   -0.718575
O     -0.301041    1.235944   -0.460774
C     -0.989259    1.253492    0.790395
C     -2.484236    1.560442    0.512874
C     -3.375511    1.504578    1.756843
C     -0.374593    2.353646    1.692911
C      1.128514    2.189340    1.919582
O     -0.883944   -0.022042    1.427035
H      1.058321   -0.482604    1.006360
H     -1.158417   -2.499255    0.261664
H      0.094279   -2.657658    1.551156
H      0.365980   -6.838875    1.513594
H      0.673658   -6.944374   -0.263146
H      2.031578   -6.549165    0.877649
H      2.079744   -2.366767   -2.190998
H     -1.120724   -0.494258   -1.186051
H     -2.877059    0.819916   -0.216617
H     -2.581527    2.563321    0.042609
H     -4.438499    1.599226    1.450010
H     -3.146844    2.342869    2.446250
H     -3.252000    0.538409    2.289505
H     -0.548500    3.349167    1.228846
H     -0.865640    2.349348    2.688676
H      1.331720    1.280335    2.522953
H      1.672106    2.129086    0.953301
H      1.513382    3.066021    2.482010
