42

C      3.259341   -3.249503   -1.416043
C      1.885084   -2.564852   -1.414782
C      1.918859   -1.285691   -2.294135
C      0.999301   -0.150162   -1.798074
C     -0.491930   -0.505712   -1.858674
C     -1.061487    0.162106   -0.665060
O     -2.257710    0.134842   -0.416580
C     -0.062833    0.933199    0.151071
C     -0.334920    0.786279    1.659617
C     -1.283462    1.913007    1.987051
C     -0.903898    3.007228    1.008058
N     -0.289983    2.367174   -0.171766
C      0.866755    3.126682   -0.680634
C      2.146704    2.737333    0.040566
C      2.527449    1.312527   -0.332735
C      1.315285    0.312518   -0.335528
C      1.696938   -0.922257    0.505310
O      2.225217   -0.785644    1.600145
C      1.394057   -2.316249    0.030458
H      3.202402   -4.228712   -0.894279
H      3.593981   -3.435024   -2.459193
H      4.011708   -2.612312   -0.903093
H      1.172083   -3.279809   -1.883397
H      1.643127   -1.550999   -3.338450
H      2.954035   -0.880644   -2.336815
H      1.141751    0.709533   -2.491021
H     -0.685136   -1.596640   -1.809004
H     -0.957394   -0.100800   -2.783416
H     -0.761898   -0.204133    1.932769
H      0.597191    0.959635    2.238642
H     -2.333420    1.591533    1.812372
H     -1.172893    2.247624    3.041678
H     -1.805675    3.576534    0.697207
H     -0.204022    3.708479    1.517740
H      0.697793    4.221821   -0.574572
H      0.972977    2.944288   -1.771051
H      2.011565    2.818889    1.140557
H      2.965791    3.428448   -0.254965
H      3.335555    0.997327    0.361950
H      3.019046    1.340093   -1.329864
H      0.295531   -2.464595    0.085976
H      1.831324   -3.063390    0.729834
