59

C     -2.297152    1.812738    1.365822
C     -2.758560    2.635646    0.210013
C     -1.394400    2.515830   -0.482558
O     -0.816798    3.046112   -1.417333
C     -1.124191    1.379661    0.506986
C     -1.315826    0.037684   -0.280431
O     -0.364524   -0.062282   -1.314769
Si    -0.548778   -1.547404   -2.205985
C     -0.429048   -1.116213   -4.021547
C     -2.221411   -2.372019   -1.960103
C      0.852877   -2.743776   -1.727427
C      0.716501   -4.056130   -2.518940
C      0.771297   -3.045256   -0.222453
C      2.211255   -2.094511   -2.045195
C      0.132166    1.458176    1.414337
C      1.507436    1.321471    0.778998
C      2.442538    0.961918    1.966924
C      3.249115    2.200803    2.406848
C      3.420953   -0.161129    1.567245
C      1.502943    0.489982    3.116462
C      0.123759    0.362608    2.485653
O     -0.934444    0.497354    3.448000
C     -2.287780    0.157724    3.207114
O     -2.885346   -0.553971    4.056063
C     -3.086336    0.689992    2.028133
H     -2.026023    2.547683    2.163666
H     -2.990838    3.686878    0.488799
H     -3.567619    2.152863   -0.381657
H     -2.333834    0.045955   -0.730900
H     -1.264513   -0.837917    0.396070
H      0.539300   -0.616645   -4.226539
H     -1.256245   -0.426199   -4.286095
H     -0.512276   -2.036302   -4.634593
H     -2.354658   -2.665443   -0.899212
H     -2.286059   -3.275666   -2.599090
H     -3.029222   -1.672273   -2.256638
H     -0.244449   -4.561837   -2.286570
H      0.762126   -3.866644   -3.612234
H      1.540830   -4.754442   -2.257768
H      0.884163   -2.113777    0.367047
H      1.580499   -3.743926    0.081214
H     -0.202944   -3.511359    0.037168
H      2.315698   -1.907813   -3.134985
H      2.323702   -1.127995   -1.511279
H      3.044319   -2.759924   -1.731329
H      0.143954    2.450924    1.925603
H      1.801247    2.261294    0.261333
H      1.509188    0.505529    0.033336
H      3.871874    1.962910    3.296065
H      3.919718    2.540393    1.588199
H      2.568518    3.039326    2.669480
H      2.868957   -1.084169    1.291635
H      4.036742    0.152012    0.696696
H      4.100504   -0.404453    2.412207
H      1.819349   -0.478976    3.562828
H      1.456444    1.240121    3.937936
H      0.077554   -0.651377    2.041888
H     -3.355502   -0.132336    1.336198
H     -4.037354    1.118237    2.410784
