72

C      1.865035   -2.126514   -1.028693
C      3.012301   -1.092828   -1.246202
C      4.419807   -1.588449   -0.816978
O      4.688987   -1.209095    0.524662
C      5.402299    0.009170    0.573435
O      5.476334    0.425805    1.918978
C      6.150535    1.662247    1.991898
C      4.517945   -3.116940   -0.930754
C      3.486738   -3.847077   -0.045794
C      2.202485   -3.011043    0.204300
C      0.974764   -3.833820    0.695423
C      1.299673   -4.577222    2.002649
C      0.460154   -4.851002   -0.347588
O     -0.075387   -2.910581    0.979153
C     -0.387067   -1.841221    0.133346
C      0.493712   -1.451810   -0.901561
C      0.050388   -0.493721   -1.845326
O      0.840314   -0.227891   -2.976361
C      0.557103    0.752823   -3.975656
O      0.572997    2.054717   -3.425628
C      1.898966    2.434222   -3.129604
C     -1.181671    0.159227   -1.644661
C     -1.997504   -0.157315   -0.548755
C     -3.284956    0.550071   -0.339048
C     -3.325785    1.894463   -0.430592
C     -4.581559    2.688953   -0.161844
C     -4.638258    3.081932    1.326001
C     -4.866858    1.869244    2.192404
O     -4.324279    1.789721    3.284069
C     -5.852780    0.812424    1.761975
C     -5.799234    0.552522    0.237035
C     -5.828180    1.875824   -0.541650
C     -4.556275   -0.270501   -0.177137
C     -1.596945   -1.173368    0.325441
H      1.826300   -2.782424   -1.926396
H      2.775849   -0.150430   -0.706121
H      3.072216   -0.846350   -2.326703
H      5.174990   -1.174806   -1.530675
H      6.430929   -0.156237    0.173975
H      4.881792    0.786375   -0.037400
H      5.588942    2.458384    1.454384
H      6.220365    1.964831    3.056559
H      7.187289    1.583060    1.596787
H      4.356529   -3.405727   -1.993476
H      5.543208   -3.446105   -0.653800
H      3.250478   -4.814922   -0.532541
H      3.958054   -4.078415    0.934873
H      2.436503   -2.308866    1.038090
H      2.066558   -5.363165    1.836185
H      1.673612   -3.866732    2.771178
H      0.385073   -5.065966    2.403212
H     -0.478220   -5.320063    0.018846
H      1.191658   -5.664962   -0.526154
H      0.224662   -4.359016   -1.313300
H      1.284573    0.650136   -4.812063
H     -0.444398    0.556114   -4.412182
H      1.886435    3.459222   -2.706915
H      2.351331    1.764537   -2.366288
H      2.527251    2.458854   -4.047196
H     -1.525849    0.903030   -2.349318
H     -2.408423    2.452308   -0.580427
H     -4.554542    3.614995   -0.775946
H     -3.693894    3.592240    1.619500
H     -5.472926    3.797111    1.489804
H     -6.871535    1.163796    2.033556
H     -5.669868   -0.133042    2.318631
H     -6.703811   -0.035556   -0.034773
H     -6.752104    2.446146   -0.299454
H     -5.831805    1.674411   -1.636216
H     -4.402686   -1.097806    0.545782
H     -4.766947   -0.744871   -1.159490
H     -2.220988   -1.454566    1.163913
