52

C     -2.050929   -2.373189   -0.917506
C     -1.662816   -1.856661    0.488620
C     -1.661734   -3.068470    1.453141
C     -2.762873   -0.882121    1.006483
C     -2.620634    0.536923    0.468192
C     -1.323211    1.150899    0.986188
C     -0.071291    0.307947    0.638035
O     -0.185489   -0.249777   -0.638215
C     -0.233217   -1.183711    0.434024
C      1.011525   -2.106300    0.302188
C      2.311836   -1.519275    0.863475
C      2.543165   -0.055583    0.447786
C      2.725897    0.061170   -1.113145
C      3.006872    1.526263   -1.541470
C      2.968967    2.462486   -0.310630
C      3.238950    3.919489   -0.724090
C      1.558454    2.311789    0.329381
C      1.356447    0.882858    0.964975
C      1.394003    1.043704    2.518030
C      4.007609    1.926881    0.668906
O      4.890542    2.627830    1.140567
C      3.895137    0.464045    1.034099
H     -3.020362   -2.916117   -0.884520
H     -1.278954   -3.072647   -1.303845
H     -2.152611   -1.539348   -1.642580
H     -1.136245   -3.944854    1.019100
H     -2.700241   -3.404935    1.665839
H     -1.181150   -2.797583    2.418164
H     -2.733047   -0.827683    2.118925
H     -3.773390   -1.265031    0.741519
H     -2.645149    0.546708   -0.642233
H     -3.476913    1.148918    0.826176
H     -1.228717    2.171938    0.563746
H     -1.412616    1.250606    2.087318
H      0.858964   -3.063612    0.832578
H      1.156586   -2.374520   -0.766673
H      2.300051   -1.608408    1.969739
H      3.161063   -2.145568    0.511129
H      3.583271   -0.573084   -1.431618
H      1.867479   -0.322809   -1.690628
H      4.005095    1.585779   -2.030547
H      2.252690    1.847455   -2.294229
H      3.213902    4.585877    0.164653
H      4.236630    4.008208   -1.205338
H      2.467852    4.266493   -1.444929
H      0.800580    2.494575   -0.463942
H      1.404802    3.115638    1.083947
H      0.590428    1.719472    2.872088
H      1.261125    0.071824    3.034882
H      2.322706    1.527139    2.877693
H      3.963738    0.317822    2.131476
H      4.756069   -0.085704    0.594096
