58

C     -3.221381    0.617284   -2.587243
C     -3.383639   -0.607732   -1.703784
O     -2.107246   -1.031252   -1.244618
C     -1.928054   -2.118032   -0.381263
O     -2.927542   -2.784305    0.008367
C     -0.534646   -2.411457    0.168972
C     -0.480756   -3.887532    0.630923
C      0.519063   -2.264141   -0.941104
C      0.204327   -2.492939   -2.396816
O      1.692081   -2.090107   -0.649059
C     -0.314283   -1.438490    1.400816
C      1.021393   -1.601283    2.175765
N      0.977466   -0.857968    3.431743
O      0.315031   -1.386330    4.514313
O      1.376182    0.323721    3.475064
C     -0.569601    0.027687    1.048544
C      0.331276    0.762697    0.259595
C      0.037974    2.082175   -0.134553
O      0.903928    2.828976   -0.950724
C      2.135612    2.354735   -1.502164
C      1.899515    1.310641   -2.603287
C      2.545956    1.849685   -3.871302
C      3.509836    2.930631   -3.415574
C      2.889904    3.508067   -2.157741
C     -1.156395    2.682838    0.286389
O     -1.422052    3.999147   -0.122449
C     -2.597031    4.726979    0.215288
C     -2.049982    1.957799    1.093033
C     -1.759989    0.645326    1.465270
H     -2.581461    0.371597   -3.458571
H     -4.213536    0.954121   -2.950994
H     -2.751478    1.441745   -2.013010
H     -4.025780   -0.348434   -0.836040
H     -3.861567   -1.423905   -2.285016
H     -1.119874   -4.053165    1.522913
H     -0.833116   -4.559987   -0.179952
H      0.554239   -4.196712    0.881967
H      0.972747   -3.156327   -2.844726
H      0.210080   -1.522276   -2.934084
H     -0.777877   -2.987172   -2.537729
H     -1.092803   -1.733090    2.143040
H      1.890029   -1.248095    1.585614
H      1.201565   -2.667387    2.416544
H      1.253253    0.304970   -0.051730
H      2.775238    1.930127   -0.696410
H      0.819227    1.119358   -2.769064
H      2.392114    0.360316   -2.317304
H      1.767720    2.299656   -4.526275
H      3.074607    1.047379   -4.430844
H      3.646621    3.709321   -4.196397
H      4.495586    2.474664   -3.171305
H      3.668892    3.921722   -1.479979
H      2.183903    4.322604   -2.438615
H     -2.543082    5.734249   -0.244901
H     -2.672565    4.842661    1.316363
H     -3.493740    4.204607   -0.176252
H     -2.980647    2.394897    1.427656
H     -2.479502    0.103156    2.066091
