21

C      1.653834    0.689854   -1.683060
C      0.511712    1.613291   -1.985570
O      0.765183    2.760098   -2.440020
C     -0.901411    1.203659   -1.845554
C     -1.396931    0.417622   -0.877076
C     -0.665646   -0.009203    0.333650
C     -0.772330   -1.339165    0.767413
C     -0.119327   -1.756303    1.931484
C      0.627760   -0.842945    2.682401
Cl     1.445355   -1.367510    4.142887
C      0.712973    0.491660    2.273173
C      0.060729    0.911181    1.109846
H      2.150736    0.998843   -0.740589
H      2.397260    0.737587   -2.506300
H      1.307320   -0.361124   -1.596003
H     -1.586619    1.550069   -2.609669
H     -2.425663    0.090875   -0.971050
H     -1.351562   -2.055878    0.197951
H     -0.197301   -2.787996    2.250033
H      1.277987    1.205708    2.858657
H      0.117304    1.952806    0.819390
