44

C      5.282572   -0.244298    0.986821
C      4.098768   -1.059462    0.593109
N      3.000963   -0.538307    0.009163
C      2.211594   -1.613399   -0.180263
C      0.850055   -1.524116   -0.832314
C      0.100609   -2.858835   -0.997825
C     -0.511692   -3.279859    0.298311
O     -1.095933   -4.348993    0.382245
C     -0.359146   -2.405036    1.500176
C     -0.444014   -0.905908    1.107414
C      0.221620   -0.029487    2.188376
C      0.144264    1.465773    1.863102
O      1.145691    1.792825    0.918835
C      0.800204    2.957688    0.197155
C      0.084131    2.575278   -1.068968
C      0.792161    1.961907   -2.115646
C      0.122527    1.547353   -3.270773
C     -1.256931    1.738419   -3.386945
C     -1.969049    2.343163   -2.347360
C     -1.303253    2.757953   -1.189662
O      0.039335   -0.552177   -0.192732
C      2.865312   -2.742267    0.277180
O      4.026337   -2.361803    0.747979
H      5.865309   -0.776079    1.767728
H      4.948736    0.735086    1.389215
H      5.927223   -0.076466    0.099418
H      1.041855   -1.153558   -1.862056
H      0.780374   -3.648978   -1.382094
H     -0.715950   -2.724040   -1.739855
H     -1.153565   -2.637656    2.243332
H      0.616973   -2.636525    1.976814
H     -1.527184   -0.651361    1.109188
H     -0.296064   -0.206229    3.156921
H      1.286234   -0.321398    2.320919
H     -0.887076    1.702307    1.509651
H      0.332358    2.043020    2.794658
H      0.211620    3.689900    0.800266
H      1.739474    3.484001   -0.075504
H      1.858613    1.793044   -2.029824
H      0.672028    1.071644   -4.072704
H     -1.774546    1.414502   -4.280543
H     -3.038246    2.485655   -2.436323
H     -1.869674    3.213678   -0.387126
H      2.511025   -3.763906    0.266120
