57

C      1.270780   -1.833493    4.393896
C      2.682756   -2.407240    4.339443
C      3.472984   -1.818668    3.166918
C      4.891067   -2.402140    3.106383
C      5.731886   -1.774820    1.984138
C      5.266756   -2.216046    0.624567
O      5.676540   -3.314720    0.160744
C      4.309296   -1.391399   -0.135815
C      3.857123   -1.747977   -1.342663
C      2.873455   -0.888495   -2.087151
O      2.737270   -1.369042   -3.404991
C      1.422403   -1.067453   -3.793008
C      0.539290   -1.215728   -2.562110
C     -0.626984   -0.225554   -2.505857
C     -0.240405    0.761957   -1.454059
C     -0.962161    1.843327   -1.099940
C     -2.240938    2.257784   -1.779275
C     -3.455586    1.503951   -1.220734
C     -4.724368    1.765536   -2.043167
C     -5.260818    3.146304   -1.819413
O     -4.749456    4.127086   -2.426064
O     -6.306856    3.337646   -0.914095
C     -6.820512    4.625573   -0.597884
C      1.054513    0.428933   -0.801540
C      1.482805   -0.913119   -1.418624
H      0.721643   -2.069656    3.458595
H      0.721618   -2.278306    5.250021
H      1.307735   -0.731325    4.530026
H      2.618112   -3.511889    4.230798
H      3.200117   -2.176215    5.294551
H      2.934912   -2.047140    2.222691
H      3.533782   -0.714412    3.282580
H      5.404500   -2.205782    4.073149
H      4.842088   -3.504657    2.967442
H      6.791035   -2.086837    2.114984
H      5.709854   -0.665980    2.063319
H      3.955902   -0.469986    0.310696
H      4.209909   -2.658002   -1.811767
H      3.291703    0.141544   -2.148607
H      1.096139   -1.765549   -4.591405
H      1.399419   -0.030386   -4.197765
H      0.170128   -2.264488   -2.494420
H     -1.548727   -0.761573   -2.197841
H     -0.799333    0.270374   -3.483741
H     -0.578103    2.489379   -0.316712
H     -2.153580    2.112536   -2.874332
H     -2.384081    3.341386   -1.601694
H     -3.258820    0.412614   -1.234916
H     -3.626209    1.793396   -0.161900
H     -5.502202    1.032001   -1.740651
H     -4.527272    1.606750   -3.122465
H     -7.206854    5.115854   -1.517052
H     -6.022407    5.250644   -0.135491
H     -7.654258    4.516448    0.126129
H      0.918198    0.325352    0.297659
H      1.777478    1.247498   -0.999814
H      1.398125   -1.720822   -0.655449
