57

C     -0.984558   -5.030359    6.598413
C     -0.832238   -5.553615    5.171834
C     -0.476253   -4.452125    4.159269
C     -1.611168   -3.428492    3.933050
C     -1.415884   -2.113218    4.706225
C     -0.259861   -1.313912    4.174198
O      0.829839   -1.304385    4.810898
C     -0.396201   -0.562535    2.910500
C      0.608116    0.149246    2.389759
C      0.436511    0.899751    1.095611
O     -0.553654    1.891383    1.239585
C     -0.176330    2.990698    0.439614
C      1.224494    2.761909   -0.126186
C      1.249807    2.357114   -1.609287
C      2.168277    1.178191   -1.655986
C      2.611336    0.573511   -2.774600
C      2.206901    0.978264   -4.168773
C      0.849007    0.374527   -4.545724
C      0.502609    0.664584   -6.010970
C     -0.874947    0.181798   -6.352030
O     -1.610757    0.878612   -7.104707
O     -1.319645   -1.056335   -5.872982
C     -2.602944   -1.584750   -6.187616
C      2.578762    0.732226   -0.296685
C      1.733912    1.582617    0.655446
H     -1.902149   -4.410131    6.687994
H     -0.093873   -4.432949    6.892848
H     -1.082466   -5.886747    7.298242
H     -0.017324   -6.308651    5.165368
H     -1.767598   -6.069204    4.862697
H     -0.266554   -4.953963    3.189334
H      0.469451   -3.953605    4.463968
H     -1.679735   -3.194299    2.848098
H     -2.591336   -3.871684    4.217139
H     -2.341657   -1.504330    4.617904
H     -1.265935   -2.315688    5.786592
H     -1.349258   -0.590714    2.393890
H      1.566936    0.173495    2.893288
H      0.092856    0.184306    0.311817
H     -0.167740    3.899035    1.078245
H     -0.934853    3.151859   -0.356398
H      1.876903    3.649959    0.037266
H      1.646537    3.194010   -2.224250
H      0.246092    2.056722   -1.976046
H      3.303462   -0.258709   -2.676924
H      2.185793    2.084590   -4.265473
H      2.978064    0.597896   -4.873507
H      0.056321    0.796088   -3.893077
H      0.882730   -0.726559   -4.388499
H      0.565575    1.758869   -6.196220
H      1.230824    0.154004   -6.675350
H     -2.745269   -2.542362   -5.646779
H     -3.395807   -0.873320   -5.872918
H     -2.677773   -1.772326   -7.280084
H      3.658754    0.946613   -0.147905
H      2.394912   -0.355644   -0.155800
H      2.331530    1.933422    1.527935
