32

C     -2.521562    0.902436    0.987008
C     -1.795575   -0.345489    1.488746
C     -1.517387   -1.401603    0.438784
O     -1.077227   -2.476943    0.818266
C     -1.765237   -1.209779   -1.046126
C     -3.054958   -1.921769   -1.446375
O     -0.684753   -1.761851   -1.802272
C      0.615292   -1.234220   -1.861631
C      1.582161   -1.926041   -2.622235
C      2.896353   -1.438879   -2.725535
C      3.230854   -0.267118   -2.044711
C      2.303806    0.390368   -1.301148
C      0.983326   -0.041126   -1.196518
B      3.026368    1.625177   -0.783391
O      2.318897    2.889486   -0.602439
O      4.438674    1.589705   -1.209519
C      4.534069    0.466466   -2.077835
H     -3.465591    0.625702    0.472016
H     -1.870756    1.486621    0.303411
H     -2.774556    1.551573    1.851671
H     -2.418590   -0.805229    2.286258
H     -0.831731   -0.038635    1.948567
H     -1.878143   -0.140941   -1.317739
H     -3.916498   -1.508126   -0.879975
H     -3.243635   -1.774415   -2.530979
H     -2.977609   -3.011889   -1.244633
H      1.308947   -2.835700   -3.141583
H      3.630702   -1.957178   -3.328410
H      0.277525    0.535225   -0.616598
H      2.226630    2.984556    0.378987
H      4.748383    0.811407   -3.112110
H      5.352198   -0.201136   -1.733603
