58

C     -5.456412   -1.453630   -0.702185
O     -4.108588   -1.227873   -0.308089
C     -3.033491   -1.936820   -0.854677
O     -3.238897   -2.844171   -1.707957
N     -1.690808   -1.634876   -0.438679
C     -0.602181   -2.571559   -0.666172
C      0.615696   -1.982114    0.060471
C      1.463701   -2.960640    0.805457
O      1.009605   -3.792774    1.575851
C      2.916105   -2.784882    0.583808
C      3.016267   -1.740781   -0.528056
C      1.599461   -1.143669   -0.781071
O      1.289285   -1.143298   -2.181871
C      2.010401   -0.416849   -3.138816
C      1.618201   -0.502582   -4.573470
O      2.995681    0.296113   -2.803131
C      1.134158    0.144929   -0.013451
C      2.262735    0.854437    0.783057
C      0.389291    1.188185   -0.895197
C     -0.740430    1.862637   -0.098381
C     -1.260271    3.161749   -0.801556
C     -0.185318    4.266422   -0.827682
C     -2.520983    3.724371   -0.116719
C     -1.857409    0.812330    0.076138
C     -1.374428   -0.593453    0.537719
C      0.150130   -0.730716    0.841723
C      0.403807   -0.755810    2.373534
H     -5.741859   -2.507748   -0.498351
H     -6.122140   -0.781849   -0.122505
H     -5.576707   -1.233678   -1.784506
H     -0.880011   -3.555935   -0.228196
H     -0.435464   -2.718981   -1.753246
H      3.396083   -2.415645    1.515206
H      3.380234   -3.745725    0.273409
H      3.359660   -2.262344   -1.449088
H      3.785428   -0.974695   -0.306589
H      1.591544    0.514306   -5.019093
H      2.354421   -1.126144   -5.121966
H      0.611216   -0.961635   -4.665776
H      2.978076    1.332670    0.080850
H      1.842752    1.646468    1.436790
H      2.842616    0.162308    1.423280
H      1.125485    1.919280   -1.279880
H     -0.076243    0.729717   -1.792974
H     -0.372284    2.145294    0.912290
H     -1.529171    2.921665   -1.854269
H     -0.616302    5.225312   -1.187356
H      0.635152    4.019687   -1.529742
H      0.235580    4.429122    0.187574
H     -2.345840    3.859899    0.971604
H     -3.389294    3.049661   -0.268686
H     -2.803335    4.704904   -0.554193
H     -2.583334    1.183532    0.830097
H     -2.409070    0.725684   -0.884465
H     -1.951504   -0.843153    1.456902
H     -0.244348   -1.516231    2.859110
H      0.163925    0.237678    2.807859
H      1.447357   -1.017080    2.635184
