57

C      1.296855   -0.520280    2.375501
C      2.785358   -0.600855    2.003305
C      3.230871    0.845732    1.810395
C      1.965969    1.562305    1.502608
O      1.937906    2.736898    1.166364
C      0.744170    0.694905    1.590495
C     -0.363556    1.425414    2.379629
C      0.309586    0.340424    0.133222
C     -0.454352   -0.991776   -0.071322
C     -1.967392   -0.939887    0.250394
C     -2.757631   -0.022083   -0.696033
C     -4.264220   -0.153439   -0.452570
C     -5.023024    0.763064   -1.359251
O     -5.404608    0.352137   -2.490121
O     -5.269517    2.078637   -0.956911
C     -5.963555    3.012055   -1.775706
C      0.222617   -2.113350    0.707066
C      0.517004   -3.325395    0.154975
C      0.105384   -3.681872   -1.268572
C     -0.016426   -5.193263   -1.489775
C      1.156527   -5.918447   -0.913918
O      1.592344   -6.961548   -1.469201
C      1.735874   -5.465863    0.354326
C      1.389886   -4.287811    0.896145
C      2.005902   -3.878413    2.202394
C      1.028851   -3.016424    2.992342
C      0.480418   -1.821349    2.177890
H      1.263573   -0.277258    3.464477
H      3.380449   -1.092979    2.802632
H      2.912939   -1.152410    1.045679
H      3.952294    0.932030    0.969653
H      3.673483    1.252261    2.745181
H      0.053565    1.883747    3.302824
H     -1.161493    0.729861    2.698963
H     -0.816088    2.235152    1.768211
H      1.228833    0.250066   -0.492079
H     -0.244228    1.189299   -0.316445
H     -0.369356   -1.178408   -1.161482
H     -2.147047   -0.627918    1.294949
H     -2.374625   -1.970705    0.150481
H     -2.533467   -0.292015   -1.751777
H     -2.464681    1.035786   -0.527265
H     -4.588368   -1.202470   -0.631769
H     -4.498869    0.106618    0.602816
H     -6.027169    3.984836   -1.246121
H     -5.418014    3.158754   -2.732241
H     -6.991636    2.645567   -1.982205
H      0.857351   -3.264562   -1.972974
H     -0.890486   -3.256718   -1.514463
H     -0.097103   -5.400514   -2.579002
H     -0.939072   -5.566981   -0.994927
H      2.446786   -6.112112    0.856505
H      2.950991   -3.334571    2.007128
H      2.255332   -4.771119    2.818150
H      1.515213   -2.665747    3.928507
H      0.174668   -3.661842    3.298459
H     -0.514257   -1.615919    2.628873
