55

C     -1.644803    0.399090    0.350325
C     -0.996389    0.728490   -0.972750
C      0.216858   -0.287121   -1.165670
C      1.500867    0.470109   -1.632724
C      1.278784    1.154841   -2.995091
C      2.727608   -0.453876   -1.742399
C      0.501759   -1.225293    0.102880
C     -0.778992   -1.861105    0.780981
N     -0.799042   -1.791125    2.244844
C      0.209497   -2.394584    3.067369
O      0.110982   -2.341174    4.324198
O      1.297638   -3.040952    2.472434
C      2.337355   -3.648071    3.229241
C     -2.064184   -1.273591    2.800470
C     -2.902124   -0.774336    1.595065
C     -4.348756   -1.122715    1.523689
O     -4.798835   -2.211864    1.843446
C     -5.189667   -0.023945    0.970700
C     -4.197215    1.075189    0.558209
C     -2.849578    0.732518    1.228355
O     -2.559444    1.570387    2.352865
C     -2.182180    2.911981    2.231574
C     -1.914793    3.713302    3.459205
O     -2.097968    3.459032    1.098512
C     -2.013973   -1.088391    0.389795
C     -2.757350   -1.692587   -0.835225
H     -0.818541    0.650366    1.063916
H     -0.652053    1.784303   -0.926114
H     -1.723057    0.645546   -1.808770
H     -0.059066   -0.974233   -1.994097
H      1.740626    1.258070   -0.884613
H      1.030273    0.402080   -3.773741
H      2.195836    1.698910   -3.307082
H      0.459104    1.899829   -2.947332
H      3.586634    0.089427   -2.191225
H      2.496513   -1.337875   -2.374666
H      3.056027   -0.793753   -0.738347
H      1.065037   -0.638014    0.860905
H      1.161863   -2.064099   -0.203943
H     -0.874036   -2.926999    0.474336
H      2.842642   -2.886247    3.859931
H      1.920268   -4.451767    3.872132
H      3.081103   -4.091495    2.535937
H     -2.592906   -2.095616    3.328851
H     -1.856416   -0.461371    3.527154
H     -5.881464    0.345512    1.757844
H     -5.769221   -0.380382    0.092269
H     -4.089191    1.110411   -0.546605
H     -4.569899    2.067389    0.891778
H     -1.706553    3.038138    4.315574
H     -2.801901    4.337283    3.694444
H     -1.034624    4.370962    3.298776
H     -2.059224   -1.920826   -1.663056
H     -3.538078   -1.012684   -1.226682
H     -3.238770   -2.649980   -0.544509
