76

C      1.714907    2.422845   -2.064269
C      1.282534    1.667006   -3.353086
C      0.403340    2.609454   -4.100838
C     -0.094589    2.417495   -5.333016
C      0.106678    1.182403   -6.114140
C      0.626257    1.268623   -7.414132
C      0.793917    0.114480   -8.185212
C      0.425141   -1.132244   -7.670127
Cl     0.629107   -2.578405   -8.641183
C     -0.119801   -1.222349   -6.385491
C     -0.287099   -0.069590   -5.612178
C      0.231234    3.830206   -3.343635
O     -0.468586    4.804790   -3.733020
C      0.973278    3.807412   -2.048516
C      1.982187    4.971991   -2.020237
C     -0.015950    3.951474   -0.859530
C     -0.867756    2.691542   -0.645348
C     -0.026453    1.388414   -0.456420
C      1.490734    1.624809   -0.749081
C      2.293022    0.309431   -0.713648
C      2.095440   -0.418184    0.621100
C      0.598862   -0.681082    0.874474
C      0.382736   -1.567795    2.116532
C     -1.104882   -1.947430    2.258522
N     -1.304223   -2.836869    3.433235
C     -2.464422   -3.745168    3.263923
C     -2.825309   -4.448829    4.576854
C     -3.227933   -3.432974    5.660540
C     -2.565315   -2.058520    5.465114
C     -1.202816   -2.187872    4.768517
C     -2.023186   -0.699006    2.258139
C     -1.750914    0.212231    1.046715
C     -0.252940    0.637541    0.912968
C      0.131926    1.555074    2.115116
H      2.813017    2.595193   -2.149597
H      2.173324    1.414976   -3.969070
H      0.731569    0.735428   -3.134411
H     -0.615545    3.232500   -5.821840
H      0.910684    2.228577   -7.826972
H      1.206139    0.191057   -9.183178
H     -0.424216   -2.182174   -5.989386
H     -0.750681   -0.153148   -4.638194
H      2.659525    4.927135   -2.900565
H      2.602477    4.921590   -1.099533
H      1.453592    5.950151   -2.035448
H      0.541585    4.161857    0.079938
H     -0.689631    4.820973   -1.025697
H     -1.541091    2.888996    0.209279
H     -1.534854    2.567602   -1.526955
H     -0.393277    0.687961   -1.238001
H      1.918779    2.262107    0.052510
H      3.375008    0.529072   -0.844812
H      1.982841   -0.364335   -1.540428
H      2.639861   -1.386649    0.572476
H      2.543372    0.168560    1.450473
H      0.247528   -1.285111    0.004606
H      0.768305   -1.063455    3.024431
H      0.969138   -2.505831    1.999407
H     -1.355697   -2.525495    1.338014
H     -3.357113   -3.192155    2.899153
H     -2.211032   -4.519593    2.507954
H     -3.660872   -5.161300    4.403609
H     -1.945673   -5.034970    4.924927
H     -2.949802   -3.842202    6.656186
H     -4.332180   -3.299845    5.650430
H     -3.228774   -1.414074    4.849834
H     -2.435577   -1.562739    6.451274
H     -0.720849   -1.190323    4.720027
H     -0.538209   -2.808554    5.406859
H     -3.084822   -1.020562    2.211581
H     -1.915893   -0.105217    3.185704
H     -2.410352    1.098837    1.143335
H     -2.071241   -0.326508    0.127282
H      1.181570    1.898139    2.072588
H      0.013229    1.043175    3.088214
H     -0.512253    2.455976    2.155070
