74

C      2.108939    0.323439    1.660681
C      1.359522   -1.030806    1.673529
C      2.450276   -2.051222    1.730457
C      2.325107   -3.355321    2.029281
C      1.048389   -4.037071    2.347544
C     -0.122158   -3.829779    1.589330
C     -1.288755   -4.537746    1.878816
C     -1.298491   -5.480203    2.909021
Cl    -2.754724   -6.401335    3.234302
C     -0.135051   -5.716769    3.649194
C      1.035603   -5.005082    3.364169
C      3.715905   -1.399758    1.420195
O      4.836043   -1.978441    1.422786
C      3.508095    0.031120    1.038488
C      4.596272    0.930960    1.653535
C      3.501877    0.116333   -0.512062
C      2.806161    1.368694   -1.046289
C      1.342751    1.439342   -0.547067
C      1.346539    1.516013    1.007112
C     -0.072880    1.651850    1.602364
C     -0.880756    2.771382    0.941092
C     -0.927398    2.563169   -0.577926
C     -1.923495    3.522757   -1.257649
C     -2.097021    3.174117   -2.757112
N     -3.088236    4.106685   -3.373750
C     -4.483360    3.827903   -2.924154
C     -5.410111    3.369216   -4.067019
O     -5.472316    4.294130   -5.140100
C     -4.225846    4.914502   -5.429061
C     -3.000588    4.191610   -4.849456
C     -0.701806    3.222134   -3.438365
C      0.324038    2.304487   -2.743649
C      0.497553    2.593119   -1.220722
C      1.196384    3.976897   -1.044061
H      2.256954    0.589304    2.734815
H      0.686609   -1.112720    2.550613
H      0.783587   -1.160212    0.734598
H      3.231596   -3.945919    2.119819
H     -0.129386   -3.164650    0.738980
H     -2.179410   -4.370167    1.288015
H     -0.135113   -6.454979    4.440416
H      1.929699   -5.212761    3.938075
H      4.344483    2.001422    1.501390
H      5.585141    0.728523    1.188455
H      4.687526    0.753135    2.747974
H      4.543363    0.088585   -0.897487
H      2.979102   -0.766927   -0.945459
H      3.382213    2.263922   -0.735833
H      2.834809    1.311367   -2.153586
H      0.852019    0.483741   -0.831704
H      1.903763    2.429918    1.301335
H     -0.637523    0.705352    1.480839
H      0.008986    1.862262    2.689919
H     -1.913162    2.735658    1.350347
H     -0.457559    3.769769    1.198077
H     -1.346982    1.542934   -0.733722
H     -1.608310    4.582148   -1.140979
H     -2.896903    3.430520   -0.729501
H     -2.474075    2.131102   -2.845919
H     -4.535932    3.050859   -2.132693
H     -4.900196    4.758871   -2.487167
H     -6.436491    3.235645   -3.664238
H     -5.078780    2.379537   -4.452313
H     -4.249121    5.957096   -5.053275
H     -4.111131    4.960752   -6.529997
H     -2.102009    4.769875   -5.139737
H     -2.939609    3.177017   -5.300844
H     -0.782282    2.863714   -4.486823
H     -0.321021    4.265065   -3.470636
H      1.289136    2.422845   -3.278722
H      0.000526    1.251953   -2.887541
H      1.420766    4.198551    0.016193
H      2.155639    4.007470   -1.610094
H      0.580428    4.811985   -1.429241
