73

C      1.975518   -0.833492    0.956920
C      1.463152   -0.300170    2.325358
C      1.277175   -1.500188    3.187840
C      0.745716   -1.511267    4.420983
C      0.325100   -0.293586    5.139840
C     -0.975816   -0.217094    5.659026
C     -1.383518    0.911250    6.376220
C     -0.490386    1.966022    6.591880
Cl    -0.998397    3.376461    7.500743
C      0.815322    1.885854    6.097489
C      1.226730    0.757017    5.382784
C      1.624859   -2.695619    2.450806
O      1.565354   -3.859476    2.932984
C      2.048212   -2.399816    1.050092
C      3.491213   -2.898932    0.840653
C      1.102457   -3.109086    0.043894
C     -0.300579   -2.483481    0.014467
C     -0.299422   -0.945810   -0.267628
C      1.146258   -0.352200   -0.267418
C      1.139174    1.184334   -0.405369
C      0.355251    1.625154   -1.645298
C     -1.080418    1.066839   -1.601432
C     -1.944112    1.642848   -2.739857
C     -3.418844    1.189411   -2.575710
N     -4.336177    1.715699   -3.622184
C     -4.603590    3.159353   -3.487067
C     -4.222423    3.843224   -4.795102
C     -3.449762    2.808556   -5.578566
C     -3.915170    1.481935   -5.013080
C     -3.534189   -0.343548   -2.479750
C     -2.616778   -0.923475   -1.385760
C     -1.119589   -0.501865   -1.541158
C     -0.533468   -1.156253   -2.830957
H      3.004310   -0.426238    0.819427
H      0.501132    0.244579    2.252272
H      2.223763    0.376375    2.765201
H      0.531597   -2.463127    4.891782
H     -1.675898   -1.029085    5.502880
H     -2.392435    0.963842    6.765673
H      1.517288    2.690145    6.279963
H      2.253330    0.692252    5.048306
H      4.175736   -2.443227    1.588598
H      3.849834   -2.627297   -0.175430
H      3.542436   -4.004640    0.950995
H      1.013291   -4.188093    0.298434
H      1.530568   -3.062987   -0.981602
H     -0.787881   -2.670670    0.997087
H     -0.899434   -3.050892   -0.722450
H     -0.824818   -0.487276    0.599181
H      1.691477   -0.733837   -1.155999
H      0.686419    1.660983    0.489651
H      2.183629    1.555716   -0.491643
H      0.881906    1.305122   -2.568779
H      0.320526    2.736527   -1.655565
H     -1.528373    1.453129   -0.654993
H     -1.519303    1.343944   -3.717002
H     -1.898079    2.751538   -2.697052
H     -3.773710    1.573435   -1.591173
H     -4.046953    3.626477   -2.643367
H     -5.687416    3.306414   -3.288412
H     -5.140681    4.129999   -5.354720
H     -3.603619    4.749425   -4.613782
H     -2.360655    2.936131   -5.398284
H     -3.652472    2.882366   -6.669064
H     -4.801282    1.136209   -5.588247
H     -3.132938    0.703365   -5.123019
H     -3.310538   -0.826641   -3.451994
H     -4.585929   -0.607443   -2.231984
H     -3.000081   -0.586611   -0.396488
H     -2.725455   -2.026731   -1.413661
H     -1.073546   -0.842062   -3.743123
H     -0.606892   -2.260949   -2.791290
H      0.528962   -0.901188   -2.996093
