78

C      0.335355    3.666432    0.654845
C      0.387193    3.230887    2.137322
C      1.563922    3.972700    2.685302
C      1.950383    4.017506    3.969632
C      1.184321    3.410659    5.073803
C      1.818675    2.498177    5.929787
C      1.119980    1.934370    7.001629
C     -0.212015    2.291553    7.236418
Cl    -1.086403    1.585799    8.583319
C     -0.841031    3.223207    6.403983
C     -0.144120    3.788455    5.331829
C      2.359794    4.475952    1.578145
O      3.436679    5.118875    1.710990
C      1.796110    4.039972    0.264725
C      1.834619    5.190121   -0.761245
C      2.610741    2.811014   -0.219241
C      1.868651    1.974797   -1.261669
C      0.524729    1.457901   -0.695691
C     -0.366764    2.681069   -0.325379
C     -1.751107    2.256388    0.210552
C     -2.458465    1.290041   -0.740553
C     -1.574142    0.056163   -0.984904
C     -2.338015   -1.050139   -1.740615
C     -1.496574   -2.352024   -1.846331
N     -2.160578   -3.437141   -2.639946
C     -1.598768   -4.785249   -2.367806
C     -2.122886   -5.389242   -1.051326
N     -3.595979   -5.420953   -1.047710
C     -4.087832   -5.983333    0.218868
C     -4.131490   -4.063101   -1.241075
C     -3.640557   -3.505530   -2.582857
C     -0.132804   -2.010433   -2.495419
C      0.615015   -0.878947   -1.767066
C     -0.212327    0.435077   -1.651680
C     -0.396883    1.042301   -3.077318
H     -0.271193    4.603562    0.643070
H      0.569555    2.140204    2.235631
H     -0.556402    3.506548    2.649938
H      2.913610    4.450302    4.212221
H      2.850792    2.215799    5.760914
H      1.614751    1.221776    7.649182
H     -1.865920    3.516835    6.592256
H     -0.633085    4.536685    4.721292
H      1.338041    6.096564   -0.352910
H      1.311491    4.900157   -1.695885
H      2.883652    5.456481   -1.012423
H      2.852386    2.144057    0.640008
H      3.583272    3.142769   -0.644852
H      1.707046    2.589399   -2.171605
H      2.529779    1.128878   -1.536207
H      0.751247    0.914038    0.248803
H     -0.550530    3.266177   -1.251462
H     -2.389008    3.156512    0.347683
H     -1.649087    1.760205    1.199617
H     -3.415322    0.977794   -0.267883
H     -2.712234    1.799390   -1.693867
H     -1.350717   -0.370286    0.021955
H     -3.259580   -1.257337   -1.157803
H     -2.650301   -0.701128   -2.746318
H     -1.306077   -2.701217   -0.808715
H     -0.492459   -4.776177   -2.341433
H     -1.874956   -5.464142   -3.204544
H     -1.732956   -4.818581   -0.179729
H     -1.730147   -6.426876   -0.971395
H     -3.701216   -7.016623    0.353407
H     -3.772517   -5.362985    1.087880
H     -5.197405   -6.045349    0.203461
H     -5.242863   -4.097507   -1.266958
H     -3.825781   -3.393147   -0.406713
H     -4.116812   -2.531211   -2.808563
H     -3.997520   -4.180448   -3.392352
H     -0.280859   -1.747568   -3.564130
H      0.537802   -2.891594   -2.480492
H      0.893051   -1.241827   -0.752506
H      1.561000   -0.700050   -2.319466
H      0.582495    1.147651   -3.588767
H     -1.018931    0.405358   -3.732611
H     -0.873666    2.040044   -3.056017
