82

C     -1.970281   -0.762186   -2.664514
C     -1.310766    0.436440   -3.402238
C     -0.455280   -0.162403   -4.464388
C      0.355264    0.511227   -5.296644
C      0.481056    1.981230   -5.307198
C      1.750968    2.561254   -5.193152
C      1.899234    3.949621   -5.215982
C      0.773105    4.781231   -5.369583
O      0.869011    6.181635   -5.388430
C      2.092748    6.903697   -5.293453
C     -0.490789    4.197725   -5.511466
C     -0.638470    2.808704   -5.492382
C     -0.506232   -1.607682   -4.382651
O      0.135724   -2.377673   -5.149560
C     -1.393550   -2.085740   -3.282045
C     -2.518771   -2.951960   -3.880088
C     -0.581880   -2.926228   -2.257154
C      0.366890   -2.071025   -1.403827
C     -0.341557   -0.893767   -0.659076
C     -1.824908   -0.719420   -1.118986
C     -2.473428    0.535754   -0.502217
C     -2.369202    0.516224    1.027276
C     -0.897721    0.380591    1.462930
C     -0.741207    0.543781    2.987821
C      0.749443    0.571230    3.376940
N      0.894033    0.798123    4.839764
C      0.689958   -0.393164    5.687135
C      0.511732    0.038532    7.155521
N      1.106628    1.370338    7.413873
C      1.277604    1.592963    8.855815
C      2.391677    1.521797    6.707394
C      2.161377    1.482397    5.182143
C      1.489730   -0.684900    2.853711
C      1.286739   -0.874618    1.337197
C     -0.217892   -0.925004    0.914801
C     -0.870525   -2.219505    1.493983
H     -3.063443   -0.707522   -2.879595
H     -0.677322    1.063028   -2.744307
H     -2.101903    1.073826   -3.847756
H      1.035218   -0.048017   -5.930846
H      2.629798    1.938903   -5.070747
H      2.891755    4.366636   -5.113849
H      1.878016    7.991232   -5.305354
H      2.611235    6.654166   -4.344878
H      2.743222    6.663130   -6.159244
H     -1.361301    4.824839   -5.653203
H     -1.619334    2.382375   -5.651692
H     -3.242313   -3.244039   -3.089176
H     -3.067509   -2.394496   -4.669303
H     -2.101168   -3.875429   -4.336004
H      0.010107   -3.706616   -2.785952
H     -1.274477   -3.465390   -1.573640
H      0.888549   -2.755801   -0.708198
H      1.159940   -1.659605   -2.068489
H      0.198164    0.023396   -0.982571
H     -2.420617   -1.579741   -0.752077
H     -1.986234    1.458862   -0.882799
H     -3.546583    0.579390   -0.789182
H     -2.988876   -0.305534    1.444268
H     -2.784762    1.472520    1.416421
H     -0.368144    1.251839    1.009578
H     -1.198536    1.508908    3.299453
H     -1.288453   -0.258809    3.521767
H      1.186405    1.447753    2.842830
H     -0.206983   -0.965030    5.370813
H      1.571130   -1.069240    5.615978
H     -0.577166    0.094836    7.378953
H      0.956895   -0.742321    7.816692
H      0.310541    1.442938    9.383802
H      1.597770    2.642339    9.042195
H      2.038499    0.899476    9.282781
H      3.088871    0.703046    7.001492
H      2.870720    2.489837    6.973255
H      3.030391    0.985319    4.696877
H      2.113094    2.528852    4.805604
H      2.578115   -0.579195    3.047367
H      1.155486   -1.600925    3.380654
H      1.815708   -1.805886    1.047308
H      1.796204   -0.037877    0.808784
H     -0.348169   -3.130709    1.135919
H     -0.830582   -2.249310    2.599456
H     -1.938933   -2.319963    1.227093
