86

C     -0.588620    2.080388   -1.865456
C     -0.815789    2.891736   -0.555774
C      0.469219    3.588690   -0.277883
C      0.780933    4.264903    0.842001
C     -0.085258    4.292032    2.032980
C     -0.498447    5.518087    2.562448
C     -1.358198    5.567745    3.681171
O     -1.775960    6.796391    4.218315
C     -1.422824    8.077215    3.699096
C     -1.799018    4.353420    4.269386
O     -2.710694    4.302049    5.340803
C     -3.658412    5.316815    5.660047
C     -1.332286    3.126403    3.773420
O     -1.782778    1.945130    4.389575
C     -1.520420    0.631255    3.902985
C     -0.457828    3.104361    2.672694
C      1.277327    3.577607   -1.474688
O      2.347118    4.237063   -1.603604
C      0.699997    2.708532   -2.553653
C      0.276123    3.616275   -3.733142
C      1.806901    1.718707   -3.025954
C      1.309330    0.306001   -3.255798
C      0.680596   -0.229980   -1.955712
C     -0.676269    0.497631   -1.760717
C     -1.419794   -0.030595   -0.510073
C     -1.594097   -1.547804   -0.546894
C     -0.214564   -2.213519   -0.631275
C     -0.304639   -3.736916   -0.420759
C      1.116128   -4.338712   -0.341496
N      1.123974   -5.804177   -0.082907
C      0.929725   -6.182358    1.342510
C     -0.364008   -6.979665    1.567684
O     -1.368982   -6.529924    0.687285
C     -1.070032   -6.951355   -0.626248
C      0.391827   -6.657515   -1.050049
C      1.957300   -3.975837   -1.585644
C      1.985345   -2.452527   -1.830409
C      0.560353   -1.809982   -1.930314
C     -0.144182   -2.329958   -3.222039
H     -1.470918    2.339580   -2.494659
H     -1.587156    3.676163   -0.738486
H     -1.175369    2.315054    0.305548
H      1.679449    4.865681    0.872602
H     -0.160782    6.429174    2.083373
H     -1.780669    8.165583    2.652729
H     -1.921849    8.864756    4.309203
H     -0.321905    8.229202    3.754612
H     -4.186016    5.663484    4.735153
H     -4.406830    4.891154    6.357853
H     -3.154703    6.163922    6.167415
H     -2.037558   -0.110381    4.547292
H     -1.902573    0.527456    2.865317
H     -0.428819    0.423734    3.925842
H     -0.063476    2.164221    2.308539
H     -0.204604    3.009550   -4.538024
H      1.155798    4.145287   -4.152014
H     -0.454132    4.387771   -3.390031
H      2.637578    1.653101   -2.283712
H      2.287441    2.081222   -3.966391
H      0.576057    0.299155   -4.093558
H      2.182702   -0.296727   -3.570997
H      1.330785    0.062306   -1.100157
H     -1.313219    0.195454   -2.620259
H     -2.424556    0.436097   -0.435353
H     -0.838582    0.204731    0.409508
H     -2.100936   -1.861767    0.391921
H     -2.247295   -1.845239   -1.392829
H      0.369452   -1.827434    0.237101
H     -0.823676   -3.928746    0.543907
H     -0.902182   -4.207557   -1.223007
H      1.637020   -3.834119    0.507682
H      0.907836   -5.286643    2.007521
H      1.794343   -6.804136    1.670760
H     -0.711131   -6.831335    2.610851
H     -0.171131   -8.069034    1.444225
H     -1.751075   -6.424278   -1.321133
H     -1.289798   -8.035109   -0.735736
H      0.397611   -6.228151   -2.073420
H      0.936157   -7.621312   -1.126349
H      1.588479   -4.477175   -2.501282
H      3.000683   -4.333689   -1.426861
H      2.559897   -1.975839   -1.005839
H      2.560396   -2.282145   -2.762293
H      0.475439   -2.125487   -4.123193
H     -0.298975   -3.424018   -3.202963
H     -1.135691   -1.861228   -3.382907
