76

C      2.273286   -1.285837   -1.119989
C      3.209465   -1.157705    0.120359
C      3.064257   -2.436878    0.864618
C      3.340727   -2.631897    2.163572
C      3.808099   -1.558441    3.064897
C      3.111517   -1.308651    4.256647
C      3.484682   -0.246136    5.087821
C      4.563105    0.588513    4.743295
N      4.929945    1.690968    5.597987
O      4.197031    1.959633    6.736680
O      5.904303    2.417005    5.302894
C      5.281915    0.318707    3.561593
C      4.919671   -0.763822    2.742992
C      2.483748   -3.429786   -0.006978
O      2.409578   -4.662194    0.280588
C      1.994711   -2.842503   -1.295024
C      2.854911   -3.414013   -2.438483
C      0.517640   -3.258801   -1.514308
C     -0.307499   -2.175988   -2.196226
C     -0.350588   -0.951147   -1.267634
C      1.042582   -0.275111   -1.206003
C      1.025372    0.829505   -0.119858
C     -0.100937    1.846722   -0.330503
C     -1.474613    1.157317   -0.472134
C     -2.621454    2.205666   -0.514946
C     -3.907409    1.748983   -1.274140
N     -3.974560    2.119880   -2.727453
C     -3.436874    3.460078   -3.075954
C     -4.288332    4.587889   -2.439898
O     -5.615032    4.173794   -2.130993
C     -6.143929    3.361291   -3.162508
C     -5.354104    2.030844   -3.281574
C     -4.077875    0.220992   -1.052361
C     -2.894558   -0.642706   -1.565875
C     -1.500043    0.080512   -1.607667
C     -1.284067    0.700788   -3.034330
H      2.914661   -0.966946   -1.974311
H      4.267366   -1.080129   -0.228142
H      3.027094   -0.297947    0.781295
H      3.080993   -3.581796    2.607706
H      2.258770   -1.916398    4.527802
H      2.921278   -0.080015    6.001017
H      6.117019    0.945420    3.271608
H      5.510725   -0.979438    1.864284
H      2.820214   -4.524737   -2.449930
H      3.922841   -3.118587   -2.322278
H      2.486206   -3.039479   -3.418433
H      0.032506   -3.506321   -0.544674
H      0.457577   -4.192567   -2.115827
H     -1.323261   -2.586033   -2.372723
H      0.135624   -1.932007   -3.184799
H     -0.555687   -1.327294   -0.238490
H      1.170049    0.271897   -2.167019
H      1.977933    1.403650   -0.140355
H      0.895846    0.368604    0.887276
H      0.130355    2.489771   -1.209457
H     -0.135786    2.518141    0.560403
H     -1.629020    0.594771    0.483533
H     -2.251905    3.219109   -0.788000
H     -2.929151    2.364177    0.552488
H     -4.757499    2.239876   -0.749912
H     -2.351343    3.564217   -2.848832
H     -3.468604    3.574181   -4.189269
H     -4.300986    5.485441   -3.106879
H     -3.808509    4.903299   -1.483257
H     -7.202609    3.136157   -2.919471
H     -6.132017    3.909809   -4.138400
H     -5.274131    1.774082   -4.361571
H     -5.945841    1.210562   -2.820100
H     -5.020790   -0.174654   -1.487321
H     -4.181112    0.047536    0.049193
H     -3.152993   -1.070162   -2.568164
H     -2.844090   -1.528524   -0.884870
H     -0.567957    0.126094   -3.644033
H     -2.214969    0.718316   -3.638414
H     -0.896784    1.733968   -2.999189
