81

C     -3.106534    1.311288   -0.799217
C     -3.398793    0.784061    0.634898
C     -3.693043    1.988322    1.461651
C     -3.850961    2.010416    2.795345
C     -3.796048    0.804535    3.644612
C     -2.926316    0.780588    4.743915
C     -2.860463   -0.346593    5.568125
C     -3.676367   -1.458205    5.313240
C     -3.598674   -2.659712    6.208185
C     -4.573070   -1.421753    4.234216
C     -4.637195   -0.295018    3.408925
C     -3.634745    3.176549    0.639128
O     -3.874768    4.339033    1.067115
C     -3.238742    2.876574   -0.768600
C     -4.349847    3.354815   -1.722997
C     -1.909516    3.601901   -1.114066
C     -0.700648    2.996351   -0.383820
C     -0.534792    1.458190   -0.606281
C     -1.743481    0.846163   -1.385428
C     -1.644537   -0.689637   -1.498714
C     -0.304978   -1.116982   -2.108610
C      0.863750   -0.546275   -1.284871
C      2.219185   -1.117567   -1.747129
C      3.349935   -0.653816   -0.809600
N      4.637688   -1.266907   -1.234655
C      5.534711   -1.722181   -0.151407
C      6.584630   -0.668923    0.209657
N      7.341298   -0.283843   -0.992987
C      8.403204    0.669184   -0.635142
C      6.433362    0.321112   -1.981531
C      5.342893   -0.680878   -2.395912
C      3.385063    0.886805   -0.698986
C      2.016740    1.457467   -0.280096
C      0.850112    1.021765   -1.224389
C      1.056129    1.667550   -2.630815
H     -3.895835    0.888795   -1.463577
H     -2.549427    0.231500    1.083735
H     -4.284703    0.115881    0.608118
H     -3.919391    2.967704    3.298709
H     -2.286956    1.629289    4.954350
H     -2.173176   -0.354001    6.405220
H     -4.254645   -3.480247    5.846184
H     -3.915804   -2.379502    7.235209
H     -2.553479   -3.034995    6.240377
H     -5.227925   -2.260851    4.034336
H     -5.360392   -0.273785    2.604646
H     -4.110136    3.064622   -2.768463
H     -4.454206    4.460697   -1.680880
H     -5.326568    2.899823   -1.449002
H     -1.720232    3.553406   -2.209133
H     -1.984656    4.681651   -0.856141
H      0.193419    3.568524   -0.694868
H     -0.814094    3.194683    0.705182
H     -0.560674    1.010126    0.411545
H     -1.730356    1.225847   -2.428166
H     -2.467580   -1.068855   -2.142658
H     -1.749344   -1.169166   -0.502969
H     -0.258453   -2.228197   -2.099808
H     -0.241926   -0.794238   -3.168896
H      0.715635   -0.925988   -0.246175
H      2.174691   -2.228673   -1.713611
H      2.425943   -0.837494   -2.799527
H      3.081666   -1.036758    0.201094
H      4.968239   -2.010373    0.759859
H      6.059722   -2.640082   -0.494561
H      7.273289   -1.117161    0.959904
H      6.100094    0.213076    0.681985
H      8.992212    0.941009   -1.537383
H      9.107414    0.203790    0.087796
H      7.982153    1.596091   -0.183618
H      7.005683    0.596047   -2.894659
H      5.981198    1.254318   -1.582396
H      4.634875   -0.192651   -3.096997
H      5.824211   -1.506392   -2.963230
H      3.687792    1.354362   -1.655476
H      4.128370    1.184807    0.067728
H      1.803096    1.123429    0.759606
H      2.112056    2.562011   -0.247101
H      0.237484    1.431783   -3.334746
H      1.988997    1.326948   -3.117451
H      1.125443    2.771390   -2.561131
