78

C     -1.941750    2.604880   -0.253026
C     -2.997124    1.477011   -0.440579
C     -3.925383    1.588819    0.719129
C     -4.996116    0.813916    0.955420
C     -5.362737   -0.350439    0.126100
C     -6.656160   -0.438043   -0.405874
C     -7.041688   -1.562856   -1.141659
C     -6.145541   -2.630796   -1.339133
N     -6.538228   -3.790627   -2.093583
O     -5.660319   -4.833364   -2.276577
O     -7.668344   -3.858486   -2.619518
C     -4.862004   -2.553265   -0.772709
C     -4.477451   -1.427406   -0.038956
C     -3.539907    2.706666    1.553514
O     -4.173036    3.066062    2.584842
C     -2.278954    3.354548    1.085613
C     -2.532893    4.852257    0.830507
C     -1.171475    3.193886    2.163438
C     -0.653711    1.752878    2.265753
C     -0.137451    1.171284    0.912032
C     -0.467822    2.111095   -0.291278
C     -0.098301    1.465705   -1.640319
C      1.372261    1.037002   -1.660673
C      1.663493    0.074773   -0.489981
C      3.072154   -0.541292   -0.584670
C      3.266766   -1.666118    0.467678
N      4.647980   -2.249135    0.363708
C      5.096629   -3.049886    1.529907
C      4.308904   -4.365469    1.662955
C      4.471595   -5.208766    0.399082
C      4.126139   -4.398381   -0.854479
C      4.868619   -3.047931   -0.871261
C      2.969670   -1.081995    1.876252
C      1.592149   -0.401160    1.969977
C      1.371718    0.715684    0.908222
C      2.314490    1.917805    1.219358
H     -2.066036    3.306959   -1.108507
H     -3.565795    1.633096   -1.381451
H     -2.545392    0.471329   -0.470697
H     -5.659385    1.063866    1.775291
H     -7.368230    0.367825   -0.257332
H     -8.040856   -1.598704   -1.553746
H     -4.159214   -3.365285   -0.887179
H     -3.500948   -1.415969    0.427842
H     -3.362645    4.994745    0.107074
H     -2.805177    5.366641    1.779351
H     -1.619479    5.335433    0.421815
H     -1.559006    3.507455    3.159276
H     -0.312254    3.862915    1.933996
H     -1.484850    1.115124    2.637281
H      0.112351    1.723931    3.060715
H     -0.724881    0.240776    0.753776
H      0.152108    3.027925   -0.209696
H     -0.727130    0.573573   -1.831181
H     -0.276444    2.187444   -2.461925
H      1.568500    0.518157   -2.624318
H      2.037735    1.924484   -1.629557
H      0.959714   -0.781242   -0.623237
H      3.166271   -0.952205   -1.606784
H      3.857963    0.232123   -0.472980
H      2.505689   -2.453924    0.279491
H      5.063851   -2.467095    2.473799
H      6.175455   -3.298340    1.411034
H      3.235280   -4.156192    1.839122
H      4.689075   -4.937275    2.534764
H      5.520841   -5.564505    0.330234
H      3.811065   -6.102146    0.457670
H      3.029023   -4.241856   -0.916755
H      4.418961   -4.983554   -1.753238
H      4.599792   -2.488697   -1.784840
H      5.957403   -3.247976   -0.982090
H      2.948524   -1.898942    2.629332
H      3.774635   -0.376469    2.172196
H      0.814264   -1.187624    1.853873
H      1.488983    0.001902    2.998274
H      3.379742    1.624953    1.218169
H      2.214736    2.736903    0.484120
H      2.104814    2.344459    2.218258
