76

C      0.865493    3.194162    0.252284
C      1.828686    2.689103    1.363175
C      3.204170    2.976407    0.867860
C      4.338995    2.860069    1.576572
C      4.385394    2.373689    2.968910
C      5.011008    3.155766    3.947844
C      5.083219    2.709177    5.270549
C      4.544472    1.461350    5.633174
N      4.614492    0.998412    6.994265
O      4.051898   -0.205307    7.353283
O      5.180594    1.683177    7.871679
C      3.943591    0.666894    4.641485
C      3.872497    1.115289    3.319390
C      3.142970    3.511398   -0.475310
O      4.159965    3.821113   -1.154737
C      1.740131    3.668128   -0.962820
C      1.478750    5.153600   -1.281086
C      1.512104    2.818037   -2.243020
C      1.462428    1.311367   -1.950696
C      0.398548    0.913455   -0.877683
C     -0.218377    2.164383   -0.171629
C     -1.138347    1.763947    0.998307
C     -2.233574    0.798321    0.531593
C     -1.609972   -0.443863   -0.132709
C     -2.674437   -1.511023   -0.451717
C     -1.990298   -2.811162   -0.943359
N     -2.934335   -3.919490   -1.248556
C     -3.309359   -4.688582   -0.043633
C     -4.433293   -5.694752   -0.360054
O     -4.478997   -5.967815   -1.746258
C     -4.888154   -4.810458   -2.458329
C     -4.135216   -3.537531   -2.015609
C     -1.083510   -2.536634   -2.156296
C     -0.061511   -1.417869   -1.871660
C     -0.715831   -0.087602   -1.374721
C     -1.541587    0.542056   -2.539539
H      0.322813    4.070300    0.677509
H      1.644292    3.237947    2.312490
H      1.723575    1.606143    1.554955
H      5.265489    3.221863    1.147111
H      5.432058    4.119871    3.690061
H      5.560035    3.340255    6.009411
H      3.537805   -0.306369    4.884863
H      3.441903    0.466982    2.567716
H      1.705110    5.791277   -0.398519
H      0.413550    5.306268   -1.559072
H      2.114232    5.490853   -2.128242
H      2.317751    3.018388   -2.983583
H      0.556540    3.111361   -2.731235
H      2.468700    0.991887   -1.599545
H      1.306135    0.792401   -2.914731
H      0.965029    0.357428   -0.099003
H     -0.863463    2.705892   -0.894352
H     -1.619480    2.671910    1.422523
H     -0.554616    1.280226    1.810311
H     -2.933177    1.313137   -0.159712
H     -2.822727    0.486197    1.421564
H     -0.947489   -0.898243    0.641831
H     -3.251761   -1.733302    0.470726
H     -3.388268   -1.112991   -1.200236
H     -1.305570   -3.148466   -0.129425
H     -3.645523   -4.014769    0.774640
H     -2.418397   -5.249307    0.314545
H     -5.415352   -5.307072   -0.002755
H     -4.243836   -6.643269    0.185458
H     -4.687510   -4.987213   -3.536416
H     -5.986186   -4.666733   -2.351174
H     -3.863287   -2.942851   -2.913102
H     -4.819001   -2.926538   -1.384525
H     -1.683572   -2.280435   -3.052024
H     -0.526733   -3.466791   -2.403592
H      0.656955   -1.789913   -1.107890
H      0.517600   -1.255100   -2.803299
H     -2.331543   -0.137549   -2.910349
H     -2.051364    1.477766   -2.247084
H     -0.894742    0.774353   -3.409258
