77

C     -0.229409   -2.703067   -1.728155
C     -0.160637   -1.626212   -2.849292
C      1.114321   -1.874344   -3.580038
C      1.536682   -1.237363   -4.685323
C      0.806162   -0.135760   -5.345043
C      0.595834   -0.194108   -6.731142
C     -0.055089    0.850457   -7.393340
C     -0.483284    1.981046   -6.680891
C     -1.189495    3.104129   -7.378095
C     -0.255027    2.052623   -5.298837
C      0.401215    1.010294   -4.638043
C      1.815969   -2.988688   -2.978410
O      2.917000   -3.436777   -3.401482
C      1.083553   -3.562218   -1.811044
C      0.756381   -5.041193   -2.096198
C      1.955038   -3.460466   -0.528559
C      2.110772   -2.013837   -0.038327
C      0.749757   -1.279300    0.196642
C     -0.465655   -2.127891   -0.300644
C     -1.795310   -1.354022   -0.189475
C     -2.016493   -0.837040    1.234531
C     -0.828616    0.041312    1.676533
C     -1.109300    0.734806    3.022260
C      0.002253    1.754476    3.390620
N     -0.276142    2.363770    4.731986
C     -1.562858    3.115106    4.710400
C     -1.666487    4.154115    5.838019
O     -0.874437    3.756889    6.931335
C      0.492488    3.865018    6.581697
C      0.819395    3.244871    5.201867
C      1.385684    1.050411    3.336196
C      1.636744    0.301423    2.013351
C      0.529776   -0.733943    1.661508
C      0.560528   -1.900258    2.697443
H     -1.109289   -3.348157   -1.958859
H     -0.162889   -0.601667   -2.439934
H     -1.023179   -1.731360   -3.543051
H      2.427817   -1.599971   -5.184027
H      0.925627   -1.055993   -7.298630
H     -0.218668    0.780359   -8.461728
H     -1.122090    3.003996   -8.482235
H     -2.259368    3.109730   -7.082635
H     -0.730239    4.072898   -7.089627
H     -0.567179    2.925189   -4.737120
H      0.629968    1.123491   -3.587738
H      0.191849   -5.143923   -3.048627
H      0.138227   -5.466141   -1.275998
H      1.688051   -5.640658   -2.179065
H      1.503811   -4.064894    0.288298
H      2.963088   -3.891514   -0.716019
H      2.741985   -2.036298    0.870751
H      2.703130   -1.449032   -0.793187
H      0.788742   -0.376313   -0.451898
H     -0.578611   -3.013711    0.358346
H     -2.639391   -2.024019   -0.465509
H     -1.811118   -0.490574   -0.885809
H     -2.949963   -0.233629    1.240677
H     -2.171580   -1.686478    1.932547
H     -0.758352    0.863471    0.925528
H     -1.236534   -0.009078    3.836632
H     -2.077736    1.267556    2.915787
H      0.010069    2.554781    2.614683
H     -2.395505    2.394141    4.854006
H     -1.715388    3.636603    3.737858
H     -1.368442    5.165585    5.471495
H     -2.722893    4.236645    6.171557
H      1.082361    3.340863    7.364972
H      0.806544    4.932944    6.605029
H      1.757032    2.668952    5.340728
H      1.004803    4.054609    4.460633
H      1.500935    0.365525    4.200781
H      2.192597    1.807887    3.401176
H      1.710959    1.056692    1.200580
H      2.629202   -0.185250    2.086168
H      0.377271   -1.548670    3.729568
H     -0.200406   -2.673747    2.491870
H      1.547244   -2.403157    2.712679
