80

C      0.917938    3.295703    0.942222
C      1.930620    3.082360   -0.206010
C      1.816245    4.332804   -1.015821
C      2.701549    4.792961   -1.914768
C      3.949462    4.089978   -2.277830
C      5.147562    4.814676   -2.338662
C      6.340822    4.179477   -2.694813
C      6.353348    2.817228   -3.015641
O      7.577228    2.224430   -3.360276
C      7.735557    0.851552   -3.705508
C      5.145451    2.094957   -2.988842
C      3.952423    2.730053   -2.631843
C      0.591859    5.021166   -0.643094
O      0.204153    6.110532   -1.150018
C     -0.181837    4.237553    0.367419
C     -0.767610    5.160651    1.455411
C     -1.292556    3.455840   -0.382308
C     -1.830333    2.267336    0.416551
C     -0.693991    1.272078    0.753972
C      0.372959    2.005274    1.620735
C      1.526804    1.071250    2.042253
C      1.010217   -0.200557    2.714084
C      0.046098   -0.936702    1.769252
C     -0.306173   -2.339825    2.303402
C     -1.173155   -3.145943    1.297863
N     -1.640072   -4.460928    1.845654
C     -0.578647   -5.258175    2.510085
C     -1.179235   -6.471411    3.250437
C     -2.432822   -7.029561    2.564046
C     -2.375171   -6.773677    1.064443
C     -2.311606   -5.260684    0.776308
C     -2.402285   -2.295494    0.882764
C     -2.039308   -0.884481    0.392644
C     -1.204257   -0.069146    1.419999
C     -2.086217    0.231030    2.671860
H      1.474253    3.857310    1.730471
H      2.960992    2.950777    0.190137
H      1.639750    2.213168   -0.829520
H      2.538876    5.771937   -2.350836
H      5.161000    5.870671   -2.094023
H      7.261346    4.748972   -2.720662
H      7.431992    0.206426   -2.854460
H      8.803183    0.655289   -3.936385
H      7.127334    0.610236   -4.603785
H      5.116428    1.046200   -3.250079
H      3.031848    2.163740   -2.659891
H      0.028696    5.798454    1.895864
H     -1.546214    5.827261    1.025504
H     -1.224041    4.564552    2.272357
H     -0.901943    3.063890   -1.349542
H     -2.134864    4.137862   -0.633056
H     -2.606415    1.779121   -0.204849
H     -2.320351    2.639434    1.341887
H     -0.204814    0.990336   -0.204881
H     -0.118643    2.346160    2.556776
H      2.196678    1.603688    2.751488
H      2.133648    0.777721    1.159233
H      0.519865    0.043368    3.679767
H      1.883009   -0.850756    2.940811
H      0.610086   -1.110740    0.822010
H      0.664945   -2.861605    2.436235
H     -0.804337   -2.283637    3.293109
H     -0.545337   -3.318966    0.394022
H      0.173044   -5.596618    1.760338
H     -0.054685   -4.679195    3.293996
H     -1.449450   -6.180175    4.290227
H     -0.405566   -7.268934    3.319292
H     -2.512170   -8.121167    2.757665
H     -3.341201   -6.538860    2.981466
H     -3.270011   -7.213434    0.572581
H     -1.475890   -7.276290    0.642740
H     -1.815001   -5.122461   -0.210671
H     -3.361770   -4.906626    0.681443
H     -2.935131   -2.786422    0.042068
H     -3.121949   -2.233215    1.726894
H     -2.990109   -0.363354    0.156703
H     -1.476095   -0.980862   -0.561868
H     -3.047357    0.699417    2.371239
H     -2.347165   -0.685353    3.233962
H     -1.589843    0.915147    3.385817
