80

C      1.084360    2.080503   -2.480689
C      0.493658    2.904548   -1.315363
C      1.300273    4.162287   -1.328475
C      0.956602    5.344646   -0.792703
C     -0.311519    5.590585   -0.073635
C     -1.048694    6.744379   -0.372296
C     -2.251837    7.008276    0.288460
C     -2.731785    6.130406    1.274995
N     -3.975996    6.399130    1.946509
O     -4.735234    7.494398    1.601384
O     -4.392502    5.637653    2.844374
C     -1.972577    4.991053    1.597892
C     -0.769569    4.728673    0.936138
C      2.510651    3.933763   -2.100104
O      3.424728    4.787550   -2.258690
C      2.570536    2.530433   -2.611695
C      3.045787    2.498714   -4.078237
C      3.516259    1.722061   -1.685741
C      3.303584    0.211714   -1.789789
C      1.850532   -0.163824   -1.415587
C      0.873446    0.538834   -2.406085
C     -0.602780    0.192758   -2.110737
C     -0.834367   -1.317970   -2.037410
C      0.093459   -1.942030   -0.980895
C     -0.265139   -3.417199   -0.709743
C      0.572105   -3.997966    0.461936
N      0.318583   -5.450758    0.725232
C      0.725539   -5.864203    2.094494
C     -0.407926   -5.724649    3.135668
N     -1.473373   -4.847241    2.625517
C     -2.482586   -4.602870    3.666789
C     -2.100412   -5.449103    1.433441
C     -1.041602   -5.963565    0.432061
C      2.073304   -3.798950    0.144252
C      2.430580   -2.332211   -0.156096
C      1.602397   -1.723687   -1.326384
C      2.015692   -2.430535   -2.655100
H      0.540584    2.425846   -3.392400
H      0.644526    2.382133   -0.348659
H     -0.585663    3.111382   -1.484294
H      1.594116    6.201175   -0.977735
H     -0.700319    7.434230   -1.131314
H     -2.806409    7.899916    0.026150
H     -2.305672    4.304457    2.365579
H     -0.189117    3.865647    1.232090
H      2.422499    3.170007   -4.707505
H      4.102011    2.835495   -4.155067
H      2.972498    1.471969   -4.492289
H      3.359795    2.014972   -0.622247
H      4.576532    1.957528   -1.925744
H      3.548948   -0.121789   -2.819339
H      4.022675   -0.268069   -1.096773
H      1.653069    0.254666   -0.403011
H      1.090960    0.164869   -3.428736
H     -1.250893    0.616964   -2.908236
H     -0.919468    0.639662   -1.143754
H     -1.895273   -1.492387   -1.752957
H     -0.681056   -1.782559   -3.033837
H     -0.115847   -1.403880   -0.025920
H     -0.138244   -4.029163   -1.626131
H     -1.339216   -3.442484   -0.436342
H      0.329016   -3.403330    1.371412
H      1.053507   -6.925920    2.060404
H      1.605365   -5.292790    2.452404
H      0.018944   -5.303350    4.073082
H     -0.818448   -6.732666    3.376115
H     -2.934554   -5.555615    4.023800
H     -3.287592   -3.945955    3.272098
H     -2.018985   -4.076709    4.528749
H     -2.736528   -4.686383    0.934867
H     -2.765389   -6.297395    1.718751
H     -1.346083   -5.758410   -0.614787
H     -1.013280   -7.074615    0.495164
H      2.700667   -4.113476    1.001039
H      2.366268   -4.448736   -0.706532
H      2.272438   -1.736659    0.770448
H      3.515999   -2.299234   -0.385188
H      1.548283   -1.973415   -3.546051
H      1.740130   -3.501039   -2.669079
H      3.115467   -2.390262   -2.795785
