88

C      2.141831    0.733395   -1.800044
C      2.666835   -0.204400   -0.688165
C      3.609996   -1.119076   -1.403185
C      4.360690   -2.077514   -0.838035
C      4.487262   -2.257136    0.621256
C      4.960918   -1.219416    1.434093
C      5.105850   -1.400313    2.823566
O      5.514947   -0.346913    3.656176
C      5.811148    0.974850    3.203482
C      4.808054   -2.662489    3.389393
O      4.952189   -2.927531    4.760674
C      6.030425   -2.452672    5.564067
C      4.337660   -3.705592    2.574247
O      4.042472   -4.942262    3.176735
C      3.581402   -6.092795    2.473729
C      4.190514   -3.498588    1.189781
C      3.404784   -0.985122   -2.835500
O      4.035775   -1.640082   -3.708733
C      2.268646   -0.063453   -3.134027
C      2.602998    0.865251   -4.318055
C      1.020098   -0.936252   -3.424941
C     -0.294274   -0.176471   -3.255697
C     -0.425908    0.370907   -1.814535
C      0.742243    1.370333   -1.555330
C      0.662725    2.018109   -0.156616
C     -0.706131    2.645634    0.102529
C     -1.804829    1.580405   -0.052685
C     -3.172276    2.102136    0.437587
C     -4.239269    0.976211    0.373698
N     -5.588378    1.385243    0.860867
C     -6.287802    2.391472    0.019175
C     -7.527089    2.997123    0.716336
C     -8.084955    2.042505    1.772139
C     -7.029063    1.730106    2.844484
C     -5.591527    1.762313    2.289569
C     -4.311131    0.348522   -1.033042
C     -2.930902   -0.136337   -1.515135
C     -1.846952    0.988941   -1.503692
C     -2.222321    2.064918   -2.567945
H      2.868008    1.581687   -1.837582
H      3.181511    0.385522    0.100361
H      1.849227   -0.810390   -0.244856
H      4.868453   -2.797430   -1.471750
H      5.228513   -0.276667    0.977423
H      4.914033    1.425993    2.721516
H      6.103081    1.600520    4.071706
H      6.659690    0.948605    2.483098
H      6.999192   -2.618806    5.042205
H      5.903553   -1.379501    5.813110
H      6.044854   -3.026676    6.514798
H      2.610099   -5.876972    1.979395
H      3.436236   -6.920785    3.196519
H      4.333590   -6.407141    1.716023
H      3.837674   -4.296987    0.550801
H      3.576012    1.373667   -4.145439
H      2.674831    0.289232   -5.266211
H      1.822824    1.647417   -4.436061
H      0.991477   -1.811447   -2.737031
H      1.075303   -1.350123   -4.456455
H     -1.116224   -0.883729   -3.487519
H     -0.339270    0.647247   -3.999299
H     -0.287781   -0.487570   -1.119424
H      0.657874    2.198589   -2.293563
H      0.850399    1.262461    0.635021
H      1.440092    2.808844   -0.071086
H     -0.877390    3.503479   -0.581953
H     -0.712873    3.044529    1.141472
H     -1.533035    0.749170    0.641767
H     -3.466904    2.995872   -0.146184
H     -3.058012    2.426601    1.493928
H     -3.882576    0.157043    1.041973
H     -5.618989    3.221940   -0.279167
H     -6.644840    1.891951   -0.904231
H     -8.314841    3.221017   -0.038134
H     -7.251168    3.957328    1.209693
H     -8.981938    2.494129    2.249759
H     -8.400162    1.097453    1.277380
H     -7.239883    0.729741    3.277347
H     -7.111430    2.470281    3.663991
H     -5.180101    2.791990    2.418076
H     -4.965682    1.062773    2.888844
H     -5.004334   -0.520399   -1.006025
H     -4.718401    1.065258   -1.771237
H     -3.066634   -0.548066   -2.536801
H     -2.607362   -0.979617   -0.865865
H     -3.143312    2.614790   -2.302924
H     -2.411634    1.593842   -3.553015
H     -1.427888    2.823201   -2.710079
