75

C     -0.994145    1.658618    2.104178
C     -1.923380    2.869510    1.774495
C     -3.284991    2.279524    1.659696
C     -4.334798    2.812250    1.012286
C     -4.292696    4.121537    0.329700
C     -3.849830    5.279006    0.992287
C     -3.823788    6.509181    0.330339
C     -4.244116    6.605081   -1.006218
N     -4.194052    7.868102   -1.689960
O     -3.724382    8.989261   -1.044561
O     -4.498791    7.952849   -2.897998
C     -4.709251    5.450122   -1.661743
C     -4.750827    4.221881   -0.992348
C     -3.295733    1.001435    2.342390
O     -4.343178    0.325426    2.545591
C     -1.936748    0.637001    2.868217
C     -1.913507    0.951276    4.382713
C     -1.652736   -0.889455    2.662423
C     -0.382800   -1.186943    1.886027
C     -0.405277   -0.399851    0.566231
C     -0.141261    1.101376    0.880093
C     -0.216081    1.930935   -0.426055
C      0.715691    1.376508   -1.506591
C      0.392457   -0.095200   -1.813555
C      1.142834   -0.592752   -3.086296
C      1.608139   -2.077387   -3.074293
N      3.004978   -2.230058   -2.565249
C      3.993427   -1.479653   -3.359189
C      5.321746   -2.221026   -3.302866
C      4.988895   -3.606010   -2.803501
C      3.481827   -3.624183   -2.571353
C      0.582230   -2.959509   -2.311996
C      0.083836   -2.420449   -0.943501
C      0.557955   -0.988344   -0.548202
C      2.037051   -1.045625   -0.036751
H     -0.237461    2.036698    2.831278
H     -1.653955    3.476358    0.893936
H     -1.929608    3.559546    2.641505
H     -5.234204    2.220121    0.906873
H     -3.543526    5.237788    2.031232
H     -3.471895    7.383352    0.866121
H     -5.047033    5.492551   -2.688809
H     -5.117254    3.344744   -1.511051
H     -2.676839    0.348550    4.917099
H     -0.917848    0.701761    4.810019
H     -2.116737    2.030097    4.579267
H     -2.489883   -1.383295    2.124079
H     -1.582549   -1.428176    3.633217
H     -0.345147   -2.281395    1.711423
H      0.500644   -0.916833    2.505698
H     -1.443026   -0.447602    0.155604
H      0.915088    1.197035    1.205924
H     -1.263456    1.934263   -0.812978
H      0.104569    2.978966   -0.237379
H      1.764064    1.464309   -1.162162
H      0.609105    1.993430   -2.420668
H     -0.693984   -0.130090   -2.082690
H      0.436792   -0.487150   -3.946037
H      1.972260    0.097329   -3.346920
H      1.605620   -2.421164   -4.131398
H      3.679196   -1.387056   -4.422107
H      4.129908   -0.457869   -2.927816
H      6.012052   -1.723080   -2.588364
H      5.798823   -2.265570   -4.301959
H      5.284881   -4.378407   -3.545718
H      5.532936   -3.814473   -1.850615
H      3.008401   -4.214363   -3.392259
H      3.264842   -4.094931   -1.585267
H     -0.310517   -3.109845   -2.975111
H      0.991120   -3.981455   -2.152569
H      0.381028   -3.152928   -0.161434
H     -1.027365   -2.449562   -0.960236
H      2.186558   -0.513611    0.920845
H      2.751270   -0.579358   -0.736268
H      2.375770   -2.088768    0.143878
