81

C      1.179085    1.441499   -1.789707
C      0.846107    1.896066   -3.247630
C     -0.051785    3.092118   -3.119469
C     -0.105777    4.080089   -4.023281
C      1.115795    4.880191   -4.251229
C      2.100847    4.464668   -5.167666
C      3.298823    5.186748   -5.281293
C      3.515407    6.329448   -4.497794
C      4.800235    7.093367   -4.582554
C      2.523107    6.751780   -3.608418
C      1.325274    6.040705   -3.505118
C     -0.217493    3.387001   -1.709586
O     -1.074805    4.200122   -1.269347
C      0.795138    2.671553   -0.877452
C      2.028315    3.598905   -0.755040
C      0.261097    2.352093    0.541553
C      0.659327    0.962802    1.016073
C      0.010246   -0.053746    0.061819
C      0.694284   -0.006516   -1.335139
C     -0.144029   -0.819786   -2.342106
C     -0.410642   -2.253973   -1.860540
C     -0.940163   -2.318782   -0.401292
C     -1.159038   -3.767135    0.041853
C     -1.831117   -3.875734    1.440567
N     -1.848325   -5.293579    1.921364
C     -2.335784   -6.282591    0.936862
C     -2.163220   -7.686697    1.518326
N     -2.898247   -7.887071    2.794353
C     -2.053188   -8.577644    3.785139
C     -3.495201   -6.655835    3.337274
C     -2.546106   -5.439234    3.239483
C     -1.103021   -2.987984    2.477742
C     -0.808747   -1.561409    1.988234
C     -0.058462   -1.521975    0.615519
C      1.376293   -2.129000    0.778002
H      2.297742    1.375556   -1.749162
H      1.793469    2.184558   -3.759431
H      0.333142    1.153963   -3.874839
H     -0.975177    4.719320   -3.918139
H      1.960178    3.566720   -5.758439
H      4.057850    4.849794   -5.966455
H      5.419990    6.877130   -3.685624
H      5.384523    6.793988   -5.472766
H      4.589269    8.185308   -4.639194
H      2.674012    7.634119   -2.993397
H      0.577178    6.380648   -2.789060
H      1.751601    4.580434   -0.338542
H      2.497619    3.735254   -1.748853
H      2.785159    3.127933   -0.086107
H     -0.846364    2.433318    0.578620
H      0.629949    3.093677    1.278297
H      1.768439    0.862226    1.033622
H      0.281612    0.868811    2.056107
H     -1.041758    0.273236   -0.093201
H      1.633730   -0.595211   -1.265003
H     -1.103162   -0.302877   -2.534830
H      0.410853   -0.912580   -3.295816
H      0.520591   -2.847874   -1.960812
H     -1.173676   -2.700966   -2.543778
H     -1.954152   -1.844178   -0.423600
H     -0.204743   -4.331346    0.043840
H     -1.832039   -4.223297   -0.711355
H     -2.875741   -3.503088    1.345792
H     -3.396840   -6.096304    0.663745
H     -1.727146   -6.266059    0.008896
H     -1.070638   -7.836795    1.628507
H     -2.515615   -8.430550    0.782079
H     -2.567172   -8.639072    4.769815
H     -1.832579   -9.607149    3.422800
H     -1.096189   -8.033583    3.950860
H     -4.425459   -6.417234    2.778755
H     -3.812059   -6.778304    4.401314
H     -1.782362   -5.500583    4.047853
H     -3.186836   -4.562020    3.460463
H     -1.717046   -2.895360    3.409997
H     -0.170457   -3.503044    2.777520
H     -0.202517   -1.088268    2.776583
H     -1.776022   -0.998073    1.917235
H      2.166270   -1.339433    0.795977
H      1.505780   -2.693883    1.722086
H      1.636119   -2.812890   -0.051442
