74

C      0.941019    2.147313   -2.167696
C     -0.538928    2.572288   -2.307476
C     -0.469322    4.058321   -2.458472
C     -1.494183    4.880826   -2.729489
C     -2.861157    4.410556   -3.020636
C     -3.119400    3.540783   -4.093584
C     -4.427049    3.125883   -4.364261
C     -5.487064    3.589638   -3.578120
Cl    -7.127008    3.068492   -3.918794
C     -5.238971    4.478509   -2.527085
C     -3.932078    4.895653   -2.255420
C      0.852334    4.509927   -2.056462
O      1.218500    5.716859   -2.044560
C      1.683771    3.372634   -1.558824
C      3.131495    3.477260   -2.078704
C      1.627950    3.383565   -0.008177
C      2.009746    2.039511    0.612166
C      1.069037    0.915841    0.114615
C      1.201764    0.799239   -1.433099
C      0.318181   -0.326699   -2.010229
C      0.571274   -1.661266   -1.309307
C      0.330893   -1.515241    0.203005
C      0.357579   -2.884524    0.908717
C     -0.007219   -2.784672    2.416489
N      0.154838   -4.113683    3.091219
C     -0.650638   -5.166367    2.415714
C     -0.827118   -6.423855    3.284658
O      0.182823   -6.485572    4.263979
C     -0.014220   -5.445133    5.200297
C     -0.201356   -4.064550    4.529571
C      0.871321   -1.695558    3.090846
C      0.876138   -0.350119    2.342841
C      1.291555   -0.468233    0.849673
C      2.787253   -0.905772    0.772381
H      1.309903    2.009694   -3.212323
H     -1.120883    2.328632   -1.393885
H     -0.995218    2.083416   -3.191712
H     -1.344031    5.950640   -2.647294
H     -2.315205    3.201958   -4.734167
H     -4.615849    2.451372   -5.189714
H     -6.056881    4.848366   -1.921883
H     -3.753688    5.586500   -1.440311
H      3.144638    3.577854   -3.185710
H      3.639544    4.365241   -1.645564
H      3.712807    2.572102   -1.806217
H      0.600541    3.637538    0.340328
H      2.302090    4.173097    0.391190
H      1.937436    2.153160    1.711944
H      3.067386    1.812995    0.362806
H      0.025946    1.236542    0.334495
H      2.253727    0.531285   -1.669206
H     -0.757997   -0.071754   -1.899452
H      0.528779   -0.446121   -3.095495
H     -0.133232   -2.411726   -1.730169
H      1.600599   -2.020687   -1.520613
H     -0.712690   -1.137330    0.320047
H     -0.396730   -3.518150    0.395602
H      1.340514   -3.383714    0.780474
H     -1.069987   -2.457000    2.492313
H     -0.121625   -5.482833    1.491169
H     -1.657925   -4.783585    2.134243
H     -1.839953   -6.438935    3.751505
H     -0.759747   -7.329960    2.645267
H      0.879226   -5.412214    5.860257
H     -0.884401   -5.677301    5.854399
H      0.457671   -3.364488    5.079634
H     -1.255516   -3.727136    4.653541
H      1.909173   -2.070091    3.217816
H      0.474216   -1.464408    4.100296
H      1.565471    0.326238    2.889533
H     -0.142020    0.093186    2.416457
H      2.952221   -1.921854    1.176548
H      3.426577   -0.227326    1.374640
H      3.176093   -0.904859   -0.263118
