78

C     -2.005494    0.743466   -2.350932
C     -1.789692   -0.795443   -2.304597
C     -3.015376   -1.359620   -1.671176
C     -3.162965   -2.621876   -1.230713
C     -2.104886   -3.641269   -1.359665
C     -1.583571   -3.994475   -2.614638
C     -0.548898   -4.933523   -2.708512
C     -0.029298   -5.538005   -1.554475
O      1.014822   -6.465107   -1.699414
C      1.709339   -7.069965   -0.610978
C     -0.569778   -5.198562   -0.300565
C     -1.609297   -4.267109   -0.207231
C     -3.981980   -0.308283   -1.447498
O     -5.155505   -0.508365   -1.036809
C     -3.426032    1.044687   -1.744647
C     -4.320034    1.761741   -2.773000
C     -3.355535    1.881113   -0.435180
C     -2.274820    1.369180    0.529814
C     -0.850980    1.289773   -0.107635
C     -0.883513    1.559042   -1.647729
C      0.497333    1.357867   -2.307943
C      1.574589    2.185926   -1.601264
C      1.618061    1.843804   -0.101750
C      2.830780    2.492054    0.597576
C      2.920164    1.991388    2.053629
N      4.143261    2.501776    2.727097
C      4.269555    3.973747    2.871546
C      4.515149    4.395890    4.323056
O      3.648229    3.671688    5.164904
C      4.073341    2.319785    5.251295
C      4.563614    1.713746    3.911243
C      1.617776    2.285621    2.826948
C      0.398123    1.677814    2.108944
C      0.256008    2.142219    0.621964
C     -0.111331    3.658191    0.599492
H     -1.992623    1.039262   -3.425598
H     -1.693542   -1.188697   -3.340002
H     -0.898944   -1.102828   -1.720171
H     -4.043932   -2.878314   -0.655752
H     -1.975185   -3.546844   -3.519861
H     -0.144414   -5.185109   -3.683386
H      1.007135   -7.667232    0.010575
H      2.197496   -6.285888    0.007848
H      2.489886   -7.750804   -1.011830
H     -0.196089   -5.646932    0.608330
H     -2.008184   -4.014698    0.767991
H     -5.317438    1.972724   -2.337328
H     -4.457333    1.129228   -3.680780
H     -3.864402    2.724622   -3.080275
H     -3.144164    2.948597   -0.668430
H     -4.339674    1.860645    0.082171
H     -2.571777    0.357320    0.877658
H     -2.299913    2.005888    1.428937
H     -0.533215    0.231647    0.015141
H     -1.144726    2.623929   -1.823207
H      0.445868    1.672276   -3.371817
H      0.800857    0.289351   -2.289329
H      2.555604    1.952325   -2.065647
H      1.391481    3.266965   -1.754413
H      1.795037    0.743622   -0.050534
H      3.764605    2.197455    0.066868
H      2.767710    3.595852    0.542736
H      3.008910    0.882013    1.989841
H      3.362739    4.503162    2.515340
H      5.121172    4.323130    2.246670
H      5.587258    4.243989    4.602015
H      4.295079    5.480666    4.429891
H      4.877929    2.237903    6.011112
H      3.224787    1.713991    5.627966
H      5.676655    1.687735    3.924679
H      4.234005    0.653778    3.841154
H      1.676422    1.831249    3.838182
H      1.466139    3.372911    2.968160
H      0.488207    0.569852    2.147188
H     -0.502662    1.945238    2.701250
H      0.686391    4.283668    1.047979
H     -0.274091    4.048010   -0.424031
H     -1.033212    3.860803    1.185656
