50

O     -0.576948    4.601110    1.347920
C     -1.109353    3.998924    0.376450
C     -1.749553    2.657771    0.614807
C     -0.733182    1.641759    1.164202
N     -1.362049    0.327012    1.426865
C     -0.471560   -0.538735    2.242275
C      0.333148   -1.512586    1.371952
N     -0.558011   -2.444014    0.648814
S      0.252104   -3.071520   -0.766580
O      0.414170   -1.984550   -1.793709
O     -0.565907   -4.180616   -1.367468
C      1.831483   -3.712174   -0.318883
C      1.922271   -4.949925    0.332536
C      3.169867   -5.455804    0.710431
C      4.332676   -4.725042    0.443636
Cl     5.897156   -5.359155    0.920004
C      4.245563   -3.485936   -0.200097
C      2.998680   -2.978913   -0.578961
C     -1.870656   -1.856025    0.294832
C     -1.812169   -0.324978    0.168339
C     -1.205625    4.693106   -0.926099
C     -1.542235    6.047768   -1.002202
S     -1.616605    6.519142   -2.620771
C     -1.202354    5.018439   -3.239740
C     -1.041250    4.665180   -4.577332
C     -0.644319    3.354456   -4.874543
C     -0.404250    2.434857   -3.838050
C     -0.569773    2.814310   -2.495863
C     -0.995255    4.118577   -2.200174
H     -2.216692    2.290677   -0.320831
H     -2.567570    2.785920    1.355900
H     -0.339458    2.062916    2.116349
H      0.130140    1.531658    0.471637
H      0.229865    0.051138    2.873201
H     -1.098032   -1.124767    2.948933
H      1.014124   -2.100338    2.023957
H      0.958784   -0.918402    0.668420
H      1.028001   -5.519973    0.550537
H      3.231280   -6.413134    1.212094
H      5.141897   -2.914365   -0.404598
H      2.945479   -2.014852   -1.067962
H     -2.598271   -2.117206    1.093025
H     -2.276496   -2.288086   -0.646152
H     -1.142777   -0.071779   -0.683785
H     -2.832324    0.037275   -0.080388
H     -1.749612    6.692489   -0.158159
H     -1.209926    5.385163   -5.367635
H     -0.509612    3.052773   -5.905114
H     -0.080222    1.429864   -4.075816
H     -0.344944    2.102252   -1.719545
