51

O     -0.226828    1.128760    0.392906
C     -0.178970    2.230779   -0.214355
C      1.169543    2.783166   -0.596775
C      1.708063    2.133360   -1.882199
N      1.782821    0.658677   -1.771939
C      1.957786    0.047819   -3.103262
C      1.744729   -1.478478   -3.029294
C      2.007549   -2.073246   -1.612549
N      0.746656   -2.089099   -0.799407
C     -0.121715   -3.218458   -1.220633
C     -1.411477   -3.242166   -0.394047
O     -1.112764   -3.408745    0.976014
C     -0.344911   -2.309665    1.420697
C      0.985905   -2.217507    0.657451
C      3.179523   -1.276336   -0.978204
C      2.879700    0.234741   -0.868914
C     -1.437478    2.916432   -0.597407
C     -1.527431    3.757834   -1.715124
S     -3.116119    4.296855   -1.893019
C     -3.705574    3.484529   -0.550442
C     -5.010404    3.484713   -0.064619
C     -5.286668    2.746456    1.093340
C     -4.261250    2.037026    1.744652
C     -2.951752    2.048755    1.235089
C     -2.679350    2.775623    0.062978
H      1.882755    2.630488    0.240113
H      1.101869    3.882862   -0.745251
H      1.022764    2.418404   -2.708362
H      2.703251    2.565642   -2.127071
H      2.976885    0.270520   -3.498764
H      1.221622    0.463742   -3.828036
H      0.717730   -1.697295   -3.379158
H      2.431590   -1.963362   -3.760057
H      2.376774   -3.116997   -1.740971
H     -0.414362   -3.133894   -2.285686
H      0.405230   -4.191042   -1.087888
H     -2.033513   -4.101102   -0.724045
H     -2.006526   -2.317435   -0.567594
H     -0.125886   -2.449031    2.499945
H     -0.919580   -1.360874    1.323121
H      1.605725   -3.116163    0.877947
H      1.501703   -1.320342    1.050788
H      4.069216   -1.403995   -1.634098
H      3.486743   -1.693859    0.004098
H      3.814362    0.801109   -1.079669
H      2.593781    0.459465    0.181490
H     -0.720534    4.011994   -2.387161
H     -5.791896    4.040850   -0.568247
H     -6.290786    2.732531    1.495227
H     -4.481586    1.484440    2.649698
H     -2.180282    1.511170    1.767079
