55

O     -1.213477   -0.162948   -4.106895
C     -1.948757    0.700913   -3.557160
C     -1.439902    2.108509   -3.391351
C     -0.107536    2.160486   -2.624332
N     -0.107519    1.235241   -1.466250
C     -0.893699    1.753750   -0.312280
C     -0.070010    2.396304    0.821095
C      0.445748    1.355015    1.825002
N      1.531704    0.553673    1.258594
C      2.859402    0.675199    1.798022
C      3.402231   -0.328376    2.633994
C      2.593945   -1.554672    3.009776
F      1.322638   -1.185243    3.413356
F      2.496003   -2.397633    1.918801
F      3.181148   -2.254700    4.052663
C      4.735548   -0.197613    3.074639
C      5.508680    0.924216    2.724606
N      6.874218    1.043032    3.171610
O      7.668682    2.075186    2.727275
O      7.357650    0.213402    3.971078
C      4.939703    1.921679    1.920495
C      3.627925    1.797218    1.463336
C      1.325590   -0.199557    0.020329
C      1.263969    0.753993   -1.177916
C     -3.302965    0.332784   -3.092655
C     -4.404963    1.178760   -3.245597
S     -5.776109    0.444125   -2.585120
C     -4.980222   -0.948142   -2.093660
C     -5.513109   -2.039584   -1.412459
C     -4.649699   -3.085130   -1.052250
C     -3.280332   -3.017972   -1.372606
C     -2.763455   -1.907180   -2.065042
C     -3.633790   -0.869110   -2.432536
H     -1.305275    2.561218   -4.397919
H     -2.187748    2.728276   -2.858071
H      0.697250    1.892027   -3.344742
H      0.094568    3.203502   -2.291787
H     -1.627352    2.515508   -0.652553
H     -1.523516    0.928742    0.084988
H     -0.741699    3.085769    1.379577
H      0.759195    3.015910    0.420954
H     -0.382635    0.681820    2.139910
H      0.795202    1.881287    2.742935
H      5.179019   -0.974549    3.684272
H      5.509257    2.798100    1.637354
H      3.212877    2.578310    0.837515
H      2.177338   -0.901440   -0.134328
H      0.406714   -0.822493    0.092362
H      1.964095    1.609019   -1.043248
H      1.625255    0.178497   -2.063321
H     -4.398112    2.151068   -3.716911
H     -6.563638   -2.077980   -1.158439
H     -5.039258   -3.944183   -0.516704
H     -2.620131   -3.825861   -1.075920
H     -1.704851   -1.865160   -2.285787
