48

O     -1.490931    0.064514    0.463007
C     -1.515624   -0.390985    1.638454
C     -0.554117   -1.486329    2.022677
C      0.915173   -1.084442    1.801009
N      1.215826   -0.831650    0.374070
C      2.508436   -0.140382    0.232030
C      2.641828    0.364144   -1.203708
N      2.295830   -0.689935   -2.166646
C      2.445447   -0.431534   -3.578066
C      3.146443   -1.332949   -4.400018
C      3.295227   -1.077647   -5.766628
C      2.747722    0.081112   -6.328538
C      2.904832    0.344751   -7.734678
N      3.031939    0.556640   -8.864992
C      2.049704    0.984056   -5.518368
C      1.899006    0.730092   -4.151845
C      2.061649   -2.058589   -1.687596
C      1.159717   -2.078108   -0.434013
C     -2.592394    0.051577    2.548314
C     -3.914959    0.161411    2.110146
S     -4.894021    0.648171    3.395914
C     -3.648658    0.743557    4.513073
C     -3.730280    1.133516    5.847503
C     -2.547115    1.188816    6.596094
C     -1.314903    0.870014    5.997803
C     -1.256015    0.481271    4.649196
C     -2.444694    0.400455    3.908804
H     -0.691983   -1.765093    3.088057
H     -0.797450   -2.397890    1.438813
H      1.106186   -0.167355    2.399435
H      1.581880   -1.878441    2.206429
H      2.565314    0.740421    0.909396
H      3.350887   -0.824887    0.482661
H      3.682897    0.709987   -1.381474
H      1.954379    1.226905   -1.332767
H      3.590624   -2.227268   -3.981997
H      3.840747   -1.781861   -6.383553
H      1.616955    1.882023   -5.943464
H      1.339880    1.432611   -3.548800
H      3.042200   -2.521975   -1.442465
H      1.584784   -2.674919   -2.481662
H      0.110903   -2.218870   -0.772565
H      1.434256   -2.971457    0.170929
H     -4.265330   -0.052588    1.108917
H     -4.680387    1.396237    6.294022
H     -2.580394    1.490909    7.634685
H     -0.404193    0.932398    6.578887
H     -0.296616    0.272916    4.203329
