50

O      1.124147   -1.589702   -2.549564
C      2.106864   -1.536164   -1.763040
C      2.590001   -0.186916   -1.300562
C      2.468770   -0.029343    0.224458
N      1.109676   -0.359415    0.711880
C      0.104455    0.619879    0.226956
C     -1.161993    0.611256    1.096218
N     -0.878395    0.935025    2.514166
S     -1.315959    2.585083    2.885314
O     -0.597391    3.518847    1.950014
O     -0.919932    2.917596    4.297130
C     -3.065409    2.783859    2.724784
C     -3.576603    3.737340    1.829245
C     -4.956343    3.901622    1.682462
C     -5.837747    3.116201    2.426803
C     -5.341534    2.164460    3.320209
C     -3.960422    1.991680    3.475027
Cl    -3.394595    0.775539    4.615162
C      0.521157    0.684437    2.913288
C      1.088469   -0.541402    2.186515
C      2.763978   -2.787389   -1.317242
C      4.132977   -2.861328   -1.034785
S      4.529787   -4.438385   -0.584609
C      2.973930   -5.040438   -0.732228
C      2.536387   -6.338993   -0.483921
C      1.172602   -6.621270   -0.640645
C      0.279079   -5.607297   -1.029905
C      0.741832   -4.303453   -1.274051
C      2.111720   -4.027211   -1.134437
H      2.011634    0.616780   -1.805250
H      3.649210   -0.047755   -1.602703
H      3.217127   -0.712827    0.683154
H      2.751273    1.006546    0.517693
H      0.517665    1.653571    0.215008
H     -0.188223    0.356912   -0.811771
H     -1.611373   -0.404090    1.054025
H     -1.913765    1.301078    0.654158
H     -2.910975    4.354816    1.240756
H     -5.342438    4.638459    0.990015
H     -6.906231    3.244839    2.311591
H     -6.033002    1.559636    3.893103
H      0.556153    0.502513    4.008742
H      1.170989    1.560138    2.687972
H      2.094897   -0.772854    2.600667
H      0.449999   -1.420197    2.421647
H      4.841064   -2.047345   -1.106737
H      3.229013   -7.109821   -0.171577
H      0.804387   -7.621398   -0.452358
H     -0.774423   -5.831947   -1.135645
H      0.031470   -3.537086   -1.547672
