53

O     -1.889252   -1.101004    5.127987
C     -1.889462   -0.514771    4.012894
C     -1.482375    0.929642    3.937245
C      0.031680    1.056666    3.714550
N      0.463748    0.266691    2.541564
C      1.857924   -0.200883    2.690960
C      2.432695   -0.633233    1.341030
N      2.525408    0.516714    0.419658
S      2.622404   -0.030735   -1.237350
O      3.743127   -1.025165   -1.365432
O      2.935797    1.137522   -2.130280
C      1.115941   -0.780702   -1.773066
C      0.953276   -2.170602   -1.701446
C     -0.223814   -2.768430   -2.160778
C     -1.268702   -1.980536   -2.675608
C     -2.528578   -2.606728   -3.218671
F     -3.633164   -1.896771   -2.783920
F     -2.662626   -3.919430   -2.801446
F     -2.491862   -2.578973   -4.600175
C     -1.097756   -0.588419   -2.750168
C      0.085544    0.006291   -2.303773
C      1.461113    1.530186    0.606144
C      0.190584    0.948364    1.250308
C     -2.191743   -1.274456    2.784866
C     -3.065502   -0.806559    1.799830
S     -3.130881   -1.928546    0.539917
C     -2.043328   -3.003060    1.226366
C     -1.578168   -4.205123    0.700439
C     -0.620717   -4.922722    1.430430
C     -0.151065   -4.429819    2.662519
F      0.784524   -5.125992    3.353674
C     -0.642763   -3.218605    3.178714
C     -1.608303   -2.510955    2.448887
H     -1.752600    1.439475    4.887387
H     -2.035343    1.446146    3.126057
H      0.533352    0.690176    4.639708
H      0.309971    2.127465    3.594026
H      1.875989   -1.068782    3.384701
H      2.505088    0.600094    3.116137
H      1.784438   -1.437151    0.926750
H      3.449284   -1.053406    1.497755
H      1.741979   -2.795567   -1.302058
H     -0.310696   -3.846332   -2.116735
H     -1.877782    0.037416   -3.165100
H      0.198402    1.079734   -2.379122
H      1.195678    2.031865   -0.348433
H      1.854241    2.328359    1.271534
H     -0.557647    1.763515    1.358038
H     -0.258077    0.207027    0.556615
H     -3.623642    0.119537    1.836013
H     -1.939323   -4.573989   -0.249715
H     -0.237770   -5.856951    1.040582
H     -0.261296   -2.842145    4.118025
