50

O      0.908005   -0.418911   -4.220658
C      1.166666   -1.345658   -3.406926
C      0.077311   -2.307965   -3.015344
C     -0.087887   -2.392575   -1.488245
N     -0.056717   -1.046230   -0.873267
C     -1.375363   -0.397092   -0.942933
C     -1.281446    1.038822   -0.416356
N     -0.679778    1.121744    0.928352
S     -1.837004    1.000565    2.237120
O     -2.934598    2.005117    2.019775
O     -1.151702    1.351028    3.528770
C     -2.557690   -0.601109    2.397656
C     -1.962912   -1.562932    3.227742
C     -2.541001   -2.828478    3.364756
C     -3.724516   -3.135822    2.685468
Cl    -4.447164   -4.724926    2.855169
C     -4.332653   -2.173005    1.873211
C     -3.755792   -0.906993    1.735358
C      0.523980    0.288949    1.114578
C      0.378172   -1.121207    0.529362
C      2.519801   -1.453141   -2.828162
C      3.192313   -2.670867   -2.696087
S      4.683979   -2.401668   -1.951183
C      4.479842   -0.746316   -1.779753
C      5.345669    0.166460   -1.182582
C      4.943554    1.507533   -1.102602
C      3.692115    1.905013   -1.608932
C      2.834832    0.966832   -2.207358
C      3.248667   -0.370245   -2.299489
H      0.314642   -3.315497   -3.418505
H     -0.884466   -1.991228   -3.473050
H      0.747195   -3.020051   -1.102678
H     -1.029934   -2.931882   -1.239246
H     -1.720642   -0.346275   -1.997727
H     -2.131720   -0.972834   -0.371950
H     -0.650325    1.627853   -1.116758
H     -2.290017    1.504326   -0.429557
H     -1.045009   -1.338787    3.755995
H     -2.068565   -3.568476    3.998038
H     -5.251036   -2.404167    1.348829
H     -4.234893   -0.171703    1.101569
H      0.793092    0.216563    2.190142
H      1.376075    0.791671    0.607525
H     -0.329353   -1.729343    1.128883
H      1.376332   -1.609163    0.590153
H      2.822327   -3.634762   -3.019100
H      6.299078   -0.151042   -0.780709
H      5.594501    2.238139   -0.640352
H      3.384813    2.939743   -1.530489
H      1.867092    1.284428   -2.570873
