51

O     -2.232372   -2.773329   -2.872063
C     -1.874669   -2.211817   -1.802965
C     -2.750827   -1.139365   -1.214020
C     -2.574061    0.222673   -1.919278
N     -1.172988    0.667210   -2.054843
C     -0.500750    0.943451   -0.769810
C     -1.057616    2.242815   -0.128317
C      0.001266    3.054740    0.639142
N      1.006447    2.163994    1.235996
C      1.296279    2.215280    2.648399
C      0.252194    2.280278    3.590394
C      0.533393    2.334873    4.959483
C      1.860185    2.317888    5.404383
C      2.149659    2.380721    6.813461
N      2.382117    2.432074    7.946055
C      2.905455    2.236001    4.475310
C      2.625953    2.183107    3.105607
C      1.735037    1.223622    0.368196
C      1.024110    1.037792   -0.981152
C     -0.578478   -2.568154   -1.185236
C     -0.405679   -2.692893    0.197471
S      1.204559   -3.078952    0.527736
C      1.695361   -3.091405   -1.074096
C      2.974049   -3.323455   -1.573581
C      3.169298   -3.248241   -2.959776
C      2.094177   -2.938514   -3.811433
C      0.812585   -2.704281   -3.285533
C      0.617640   -2.795129   -1.898659
H     -3.810867   -1.453578   -1.322903
H     -2.582719   -1.029670   -0.124460
H     -3.011819    0.145786   -2.938185
H     -3.168498    0.992494   -1.382960
H     -0.642030   -0.045429   -2.606015
H     -0.663535    0.106749   -0.060370
H     -1.878117    1.970188    0.571081
H     -1.495441    2.901352   -0.910546
H     -0.491817    3.695018    1.403483
H      0.515610    3.744564   -0.067271
H     -0.780676    2.271269    3.267193
H     -0.283749    2.388505    5.669719
H      3.936376    2.219812    4.808293
H      3.449363    2.134148    2.404113
H      2.767641    1.592455    0.191052
H      1.796343    0.233164    0.872859
H      1.258089    1.895079   -1.653139
H      1.408698    0.110573   -1.463480
H     -1.175976   -2.573417    0.947724
H      3.798516   -3.547920   -0.909475
H      4.153552   -3.420619   -3.375376
H      2.256912   -2.871916   -4.879192
H      0.005249   -2.442345   -3.954449
