48

O     -2.454962    3.614760    0.490572
C     -2.214243    2.412244    0.780398
C     -1.242288    2.101822    1.885812
C      0.207133    2.196456    1.385447
N      0.464030    1.272461    0.255937
C      1.696708    1.643388   -0.488657
C      2.898120    0.749967   -0.153086
N      2.561847   -0.659021   -0.393485
C      3.591138   -1.616544   -0.727064
C      4.889274   -1.487284   -0.197897
C      5.883241   -2.416589   -0.518917
C      5.595414   -3.486726   -1.373221
C      6.619603   -4.442940   -1.702834
N      7.443001   -5.211684   -1.967729
C      4.308965   -3.624640   -1.905949
C      3.313143   -2.697223   -1.585462
C      1.160233   -1.078946   -0.274841
C      0.414879   -0.149080    0.687349
C     -2.769018    1.343314   -0.067412
C     -2.572618    1.322575   -1.449724
S     -3.252543   -0.086592   -2.085076
C     -3.816693   -0.666197   -0.616304
C     -4.528916   -1.838356   -0.374737
C     -4.929588   -2.111460    0.941035
C     -4.623763   -1.210276    1.977890
C     -3.905912   -0.032579    1.710279
C     -3.487019    0.224284    0.397020
H     -1.425635    1.096371    2.314168
H     -1.386898    2.833596    2.709730
H      0.909231    1.994494    2.224960
H      0.369231    3.251641    1.070157
H      1.985686    2.705947   -0.331500
H      1.483493    1.544787   -1.574978
H      3.187144    0.888824    0.910852
H      3.750658    1.054539   -0.799054
H      5.132097   -0.676436    0.476355
H      6.875142   -2.301811   -0.098259
H      4.075885   -4.447570   -2.571201
H      2.329498   -2.817483   -2.020162
H      1.104029   -2.114767    0.126169
H      0.676872   -1.054830   -1.275423
H     -0.642371   -0.483280    0.733940
H      0.858585   -0.274942    1.701104
H     -2.036934    2.069772   -2.020202
H     -4.772352   -2.518449   -1.180690
H     -5.485827   -3.014071    1.158084
H     -4.951021   -1.422082    2.987496
H     -3.706195    0.665375    2.511788
