34

C      2.436285    0.372380    0.089996
C      1.161846    1.163978    0.461768
C      0.795828    0.982499    1.922130
O      1.527982    0.373369    2.689300
C     -0.452488    1.625961    2.445892
C     -1.646074    1.303506    1.539796
C     -1.373593    1.595117    0.031391
C     -1.268950    3.135624   -0.163558
C     -2.620528    1.131792   -0.768083
C     -0.063189    0.826832   -0.462222
C      0.288168    1.277980   -1.886717
C      0.162208    0.494255   -2.960127
C     -0.244766   -0.903287   -2.816217
O     -0.407990   -1.625067   -3.834726
C     -0.426700   -1.464377   -1.477774
C     -0.306332   -0.691090   -0.396025
H      2.701339    0.528546   -0.976365
H      2.301999   -0.715260    0.270055
H      3.293679    0.725539    0.702116
H      1.428039    2.234776    0.334095
H     -0.299916    2.723782    2.507734
H     -0.669542    1.260008    3.473333
H     -1.917440    0.235131    1.682828
H     -2.522603    1.891235    1.892067
H     -1.257054    3.407562   -1.239911
H     -2.148016    3.646538    0.285602
H     -0.363507    3.561470    0.309604
H     -2.836025    0.055273   -0.602868
H     -3.522680    1.699284   -0.451619
H     -2.480032    1.296675   -1.857213
H      0.634349    2.292416   -2.042776
H      0.391673    0.887656   -3.942690
H     -0.639878   -2.519938   -1.362910
H     -0.426712   -1.162096    0.571417
