36

C     -0.297332    0.390804   -3.802472
C      0.434589    0.743948   -2.507055
C      0.037343    0.020146   -1.192500
C      0.760312   -1.348480   -1.089458
C      1.026896   -1.826610    0.353546
C     -0.053771   -1.393301    1.377896
C     -1.397484   -2.094981    1.060956
C      0.424432   -1.804227    2.799571
C     -0.512626   -1.289486    3.903208
C     -0.853297    0.158641    3.697097
O     -1.339960    0.822467    4.650246
C     -0.635383    0.813697    2.395473
C     -0.223525    0.123585    1.317538
C      0.197379    0.881976    0.078865
C      1.798560    1.316422   -2.635856
O      0.670233    2.126679   -2.372763
H     -1.391349    0.508392   -3.656275
H      0.015339    1.046925   -4.643210
H     -0.081342   -0.663997   -4.071781
H     -1.052546   -0.182447   -1.277821
H      0.149852   -2.113060   -1.618239
H      1.738779   -1.312680   -1.616985
H      1.134581   -2.933921    0.355163
H      2.009822   -1.409525    0.669423
H     -1.307007   -3.192270    1.210452
H     -1.718140   -1.925665    0.014967
H     -2.211731   -1.717040    1.713823
H      0.505948   -2.910800    2.877710
H      1.439047   -1.385778    2.986941
H     -0.013425   -1.414580    4.888288
H     -1.448317   -1.886860    3.922699
H     -0.753221    1.889666    2.338493
H     -0.427931    1.795789   -0.032575
H      1.253742    1.196503    0.210067
H      2.186086    1.495108   -3.660808
H      2.469551    1.260395   -1.754827
