73

C     -1.112866   -4.834052   -5.199416
C     -0.558576   -3.704092   -4.303570
C      0.969948   -3.874573   -4.208814
C     -0.900338   -2.357799   -4.978995
Si    -1.395378   -3.843214   -2.567103
C     -1.552013   -5.661200   -2.150450
C     -3.153978   -3.216097   -2.693313
O     -0.658932   -3.141135   -1.139918
C      0.199890   -2.041823   -1.361490
C      1.620467   -2.456322   -0.964329
C      2.602209   -1.319978   -1.229679
C      2.086637    0.031858   -0.810789
C      0.770870    0.339316   -0.631776
C      0.371025    1.822693   -0.401377
C      0.935792    2.664782   -1.580350
C      1.002643    2.280768    0.958296
C      0.687440    3.715650    1.418988
O     -0.537713    3.733841    2.123156
C     -0.966247    5.069820    2.293202
C     -2.140722    5.089874    3.227483
C     -3.436774    4.850311    2.739665
C     -4.528337    4.843439    3.616727
C     -4.331021    5.070704    4.980504
C     -3.043116    5.286444    5.476024
C     -1.949002    5.291753    4.604565
C     -1.149382    2.041260   -0.390770
O     -1.589662    3.180940   -0.352246
C     -2.157710    0.932874   -0.462716
C     -1.603620   -0.314770   -1.131689
C     -0.264594   -0.793723   -0.533127
C     -0.455725   -1.163373    0.963623
H     -0.757981   -4.723085   -6.247312
H     -0.773639   -5.831621   -4.840534
H     -2.220924   -4.823193   -5.211792
H      1.463128   -2.964409   -3.817324
H      1.404549   -4.057300   -5.214685
H      1.232694   -4.739585   -3.566249
H     -0.387242   -2.281290   -5.960701
H     -1.992643   -2.276174   -5.162176
H     -0.587331   -1.483474   -4.377106
H     -2.242909   -6.160025   -2.864704
H     -1.964367   -5.765845   -1.125106
H     -0.552113   -6.138671   -2.188045
H     -3.154428   -2.153658   -3.008374
H     -3.647836   -3.310417   -1.704435
H     -3.710583   -3.816272   -3.441979
H      0.237542   -1.727047   -2.417292
H      1.669934   -2.761401    0.099702
H      1.933049   -3.349356   -1.547051
H      3.552961   -1.528686   -0.695190
H      2.825795   -1.277822   -2.318132
H      2.835395    0.816417   -0.800788
H      0.680354    2.181314   -2.550641
H      0.514361    3.693648   -1.606459
H      2.039196    2.775419   -1.522638
H      2.108960    2.204957    0.885922
H      0.708538    1.576684    1.770401
H      1.499659    4.043007    2.108252
H      0.690114    4.409519    0.546037
H     -0.151875    5.709581    2.711128
H     -1.276540    5.500847    1.314155
H     -3.603741    4.665275    1.685153
H     -5.526401    4.662577    3.238206
H     -5.174705    5.064344    5.660001
H     -2.890136    5.452974    6.534692
H     -0.954700    5.452346    5.003733
H     -2.540512    0.712871    0.555367
H     -3.030933    1.278287   -1.060883
H     -1.479551   -0.102396   -2.218230
H     -2.365604   -1.112114   -1.026387
H     -0.797208   -0.291950    1.557577
H     -1.210200   -1.970852    1.085078
H      0.494723   -1.486063    1.434462
