38

C      0.815815    4.046467   -2.552486
C      0.971788    2.547254   -2.752309
O      0.885832    1.901858   -1.498949
C      0.876447    0.487271   -1.652960
O      1.607209   -0.136980   -0.612036
C      1.202616    0.311903    0.673383
C      1.831045   -0.606937    1.729073
O      1.426468   -1.937436    1.539295
C     -0.305238    0.360096    0.842388
O     -0.774929    0.777144    1.890661
C     -1.236774   -0.064637   -0.267870
C     -0.564759   -0.049821   -1.661174
O     -0.568741   -1.417690   -2.036726
N     -1.197458   -2.219571   -1.122903
C     -1.604967   -1.515116   -0.124156
C     -2.352602   -2.112972    1.008760
C     -2.292957   -3.499821    1.242607
C     -2.991079   -4.068877    2.312032
C     -3.759453   -3.263396    3.155021
C     -3.833665   -1.887520    2.928150
C     -3.136991   -1.313161    1.860468
H      1.616610    4.426043   -1.882889
H     -0.173771    4.267652   -2.099123
H      0.888163    4.565708   -3.531426
H      1.965655    2.355996   -3.215883
H      0.168093    2.201386   -3.441060
H      1.361049    0.167445   -2.606942
H      1.607694    1.334455    0.845138
H      2.936645   -0.560110    1.632175
H      1.578284   -0.256398    2.756796
H      0.568778   -2.049242    2.026210
H     -2.146954    0.573933   -0.282535
H     -1.188761    0.519903   -2.383277
H     -1.697669   -4.142559    0.606055
H     -2.935075   -5.135431    2.487709
H     -4.299683   -3.705680    3.982062
H     -4.435088   -1.265066    3.578074
H     -3.226913   -0.247951    1.696973
