40

C      2.064075   -0.130922   -0.431237
C      0.798001   -0.825117    0.118883
C      0.676389   -0.624774    1.646161
C     -0.591772   -1.243910    2.147606
O     -0.761080   -1.425428    3.343302
C     -1.643711   -1.641912    1.160416
C     -1.719238   -0.584965    0.031873
C     -2.292035    0.787887    0.502067
C     -3.680403    0.657351    1.152726
C     -2.380652    1.772405   -0.677468
N     -0.402111   -0.364489   -0.619800
C      2.048708    1.373224   -0.303067
O      2.645533    1.863420   -1.459544
C      2.568509    0.817733   -2.404085
C      3.938812    0.651327   -3.066067
C      1.515577    1.173283   -3.459885
O      2.209126   -0.402797   -1.791595
H      2.958399   -0.533775    0.095877
H      0.925481   -1.918450   -0.060376
H      1.542077   -1.108319    2.149023
H      0.673140    0.454178    1.908489
H     -2.624461   -1.789206    1.656909
H     -1.361835   -2.623085    0.721220
H     -2.428535   -0.989886   -0.727298
H     -1.604565    1.232306    1.254193
H     -4.126179    1.660175    1.326309
H     -4.365927    0.072095    0.503159
H     -3.604301    0.169646    2.146090
H     -2.782844    2.750296   -0.336450
H     -3.044470    1.370356   -1.472769
H     -1.376670    1.963086   -1.110512
H     -0.409129   -0.834950   -1.555826
H      2.629425    1.698906    0.586259
H      1.018708    1.784046   -0.230132
H      4.247292    1.595327   -3.564600
H      3.909548   -0.163439   -3.821144
H      4.699293    0.393254   -2.298425
H      1.781293    2.124555   -3.968878
H      1.438650    0.365636   -4.219101
H      0.522554    1.298244   -2.978052
