51

C      1.298944   -2.215670   -2.262725
C      0.682077   -3.256675   -3.230325
C     -0.380113   -4.108024   -2.535118
C     -1.358098   -3.222128   -1.829162
O     -2.555437   -3.342669   -2.048486
C     -0.822700   -2.174996   -0.867357
C     -1.973855   -1.450783   -0.146719
C      0.224185   -1.248043   -1.603258
C     -0.478373   -0.401844   -2.709361
C      0.952308   -0.269410   -0.580439
O      0.085515    0.814506   -0.209328
C     -0.190671    1.205896    1.111687
O      0.368075    0.625860    2.082548
C     -1.163894    2.326409    1.384182
C     -2.389871    2.208670    0.467047
C     -0.457430    3.688070    1.231657
C     -1.296543    4.857721    1.748298
C      2.231137    0.300264   -1.176054
C      2.891036   -0.252172   -2.246066
O      3.982607    0.415439   -2.532976
C      4.100550    1.393081   -1.664278
C      3.042797    1.351411   -0.771007
C      2.843839    2.294930    0.366081
C      2.421872   -1.449552   -2.919940
O      3.004636   -1.868283   -3.956575
H      1.777341   -2.793419   -1.439096
H      0.243184   -2.755072   -4.119085
H      1.477407   -3.940961   -3.599276
H      0.103884   -4.775866   -1.790174
H     -0.897760   -4.742693   -3.287191
H     -0.277019   -2.735420   -0.075251
H     -1.597938   -0.905115    0.734470
H     -2.699365   -2.191678    0.252647
H     -2.521291   -0.768467   -0.827094
H     -1.079866   -1.033263   -3.393580
H      0.262833    0.153945   -3.320012
H     -1.168757    0.349524   -2.276548
H      1.246346   -0.860336    0.314225
H     -1.517619    2.226111    2.434972
H     -2.867283    1.215988    0.594924
H     -2.103543    2.340509   -0.598454
H     -3.152619    2.969076    0.731451
H      0.486611    3.672769    1.819540
H     -0.200160    3.868723    0.165059
H     -2.176443    5.031756    1.095435
H     -1.636391    4.665273    2.788097
H     -0.681014    5.781923    1.744918
H      4.913316    2.107483   -1.658455
H      2.050175    3.017842    0.100653
H      2.575759    1.736043    1.283838
H      3.779345    2.858308    0.567165
