51

C      0.703465   -2.538909   -2.166202
C      1.580510   -2.491244   -3.443446
C      1.213237   -1.304591   -4.338037
C      1.167700   -0.045020   -3.529168
O      1.807889    0.932747   -3.888179
C      0.329415   -0.029294   -2.263219
C      0.292773    1.373547   -1.629004
C      0.776819   -1.204284   -1.309501
C      2.236510   -0.973947   -0.805128
C     -0.194789   -1.327425   -0.060598
O      0.059797   -0.266016    0.867402
C     -0.929023    0.500031    1.502535
O     -2.150442    0.304527    1.253103
C     -0.537494    1.611082    2.443254
C      0.874109    1.381044    3.008721
C     -0.645585    2.968245    1.714776
C     -0.516829    4.161912    2.661845
C     -0.018524   -2.663602    0.642718
C      0.523813   -3.772489    0.041298
O      0.514538   -4.806042    0.848270
C     -0.047925   -4.436326    1.976449
C     -0.421006   -3.104314    1.897531
C     -1.145290   -2.350461    2.964800
C      1.002610   -3.764565   -1.332123
O      1.555152   -4.787826   -1.820352
H     -0.350163   -2.661312   -2.507285
H      1.429168   -3.421352   -4.033805
H      2.658782   -2.444673   -3.177085
H      1.958014   -1.215464   -5.159252
H      0.213797   -1.475499   -4.793166
H     -0.715367   -0.237791   -2.586572
H      0.089963    2.141768   -2.405911
H      1.247792    1.630705   -1.130354
H     -0.543690    1.448240   -0.912154
H      2.304077   -0.115453   -0.106233
H      2.615307   -1.863385   -0.260934
H      2.934661   -0.763277   -1.640135
H     -1.243290   -1.281823   -0.428822
H     -1.254873    1.599357    3.295152
H      0.957477    0.362056    3.440493
H      1.088820    2.103203    3.822921
H      1.641617    1.496551    2.212222
H      0.135910    3.044613    0.926170
H     -1.638718    3.038810    1.214582
H     -1.220486    4.061814    3.515701
H      0.521555    4.249934    3.044248
H     -0.763938    5.095987    2.113957
H     -0.199223   -5.092267    2.823750
H     -0.513299   -1.519720    3.333996
H     -2.104141   -1.962057    2.566025
H     -1.371498   -3.018406    3.823723
