78

C      1.392820    0.036682   -2.545161
C      1.322389    1.576730   -2.376024
C      2.757672    2.100259   -2.249722
N      3.192216    2.829551   -3.450495
C      3.017223    2.467944   -4.749775
N      3.634952    3.297276   -5.629922
C      4.228108    4.201124   -4.829992
C      5.027699    5.275191   -5.214322
C      5.580072    6.077198   -4.198868
C      5.327355    5.784855   -2.839769
C      4.516677    4.690499   -2.483745
C      3.975642    3.920773   -3.517838
C      3.588072    0.885436   -2.061226
O      4.780836    0.946475   -1.799633
C      2.855259   -0.408213   -2.228584
C      3.464682   -1.185769   -3.413057
C      2.965013   -1.274494   -0.941156
C      2.094846   -0.747354    0.207297
C      0.585655   -0.603962   -0.167076
C      0.348421   -0.749080   -1.705970
C     -1.100950   -0.397352   -2.085966
C     -2.093779   -1.265173   -1.302283
C     -1.867043   -1.114055    0.214791
C     -2.950234   -1.848693    1.025833
C     -2.812820   -1.516556    2.526955
N     -3.908852   -2.131451    3.326072
C     -4.027005   -3.608971    3.216203
C     -4.964334   -4.211149    4.285126
C     -5.989901   -3.181055    4.762719
C     -5.297516   -1.945674    5.364402
C     -3.921848   -1.675302    4.730240
C     -1.390180   -1.842474    3.047510
C     -0.296789   -1.176161    2.186861
C     -0.411509   -1.503083    0.661975
C     -0.101854   -3.015491    0.439044
H      1.170029   -0.172616   -3.617304
H      0.785070    2.039634   -3.232487
H      0.760266    1.873590   -1.469490
H      2.832348    2.744922   -1.348022
H      2.453268    1.598864   -5.061371
H      5.222673    5.483468   -6.258341
H      6.205674    6.920483   -4.460550
H      5.761894    6.405259   -2.066667
H      4.331418    4.464051   -1.442926
H      2.874842   -2.106064   -3.613689
H      3.468657   -0.566257   -4.335479
H      4.512578   -1.481873   -3.189104
H      4.023412   -1.325329   -0.602128
H      2.655415   -2.320990   -1.157249
H      2.252610   -1.412877    1.076344
H      2.490172    0.246871    0.512380
H      0.319088    0.440618    0.102953
H      0.491853   -1.810515   -1.996575
H     -1.308379    0.674548   -1.877666
H     -1.256028   -0.569104   -3.173444
H     -2.006001   -2.327097   -1.614052
H     -3.123248   -0.931843   -1.558225
H     -2.007994   -0.028264    0.429921
H     -3.955586   -1.517224    0.684447
H     -2.880899   -2.939362    0.841250
H     -2.934400   -0.411365    2.604790
H     -3.041256   -4.108912    3.294961
H     -4.457762   -3.856921    2.222873
H     -5.490067   -5.098063    3.869170
H     -4.364369   -4.553903    5.156670
H     -6.660660   -3.640861    5.519762
H     -6.615987   -2.870159    3.897985
H     -5.954751   -1.060999    5.219237
H     -5.166003   -2.088952    6.459141
H     -3.139943   -2.211210    5.313650
H     -3.711461   -0.584955    4.797212
H     -1.277155   -1.458546    4.083310
H     -1.209606   -2.932863    3.091157
H      0.683269   -1.500204    2.592774
H     -0.359576   -0.075449    2.337866
H     -0.765625   -3.672633    1.030738
H      0.936100   -3.257249    0.743893
H     -0.222335   -3.327781   -0.613894
