77

C      0.929641   -0.098727   -1.554878
C      2.171809   -0.023772   -0.643162
C      3.231543   -0.918662   -1.306308
N      4.229170   -0.167683   -2.086196
C      4.074860    1.000383   -2.767997
N      5.173789    1.360841   -3.479356
C      6.036385    0.358190   -3.237696
C      7.323356    0.204484   -3.749048
C      8.038100   -0.952744   -3.387849
C      7.453289   -1.916944   -2.536172
C      6.150572   -1.732285   -2.037471
C      5.472029   -0.568810   -2.410910
C      2.435460   -1.805995   -2.199851
O      2.931962   -2.731911   -2.825354
C      0.967607   -1.512245   -2.187961
C      0.398112   -1.502366   -3.621067
C      0.276171   -2.581278   -1.302322
C     -1.105684   -2.147647   -0.814824
C     -1.012001   -0.840493    0.007675
C     -0.432017    0.284263   -0.901802
C     -0.333654    1.637691   -0.166182
C     -1.668562    2.040574    0.461462
C     -2.145443    0.942358    1.425361
C     -3.364960    1.401303    2.249358
C     -3.721679    0.329826    3.313810
N     -4.890605    0.679724    4.167169
C     -4.544592    1.278052    5.479051
C     -3.804091    2.615021    5.384953
C     -6.046049    1.298537    3.477675
C     -7.361750    0.942315    4.167870
C     -3.958644   -1.039345    2.653968
C     -2.765298   -1.475126    1.782226
C     -2.375746   -0.425279    0.694266
C     -3.524791   -0.346384   -0.358517
H      1.100481    0.647359   -2.364371
H      1.932645   -0.436110    0.360552
H      2.526040    1.020375   -0.506719
H      3.736101   -1.524367   -0.522293
H      3.171479    1.593454   -2.759481
H      7.756546    0.945518   -4.407694
H      9.038684   -1.108408   -3.772651
H      8.009563   -2.807251   -2.271607
H      5.698581   -2.474104   -1.393906
H      0.447118   -2.518276   -4.069114
H     -0.660258   -1.167413   -3.619919
H      0.980948   -0.811701   -4.269972
H      0.899296   -2.803242   -0.405428
H      0.179635   -3.536311   -1.863968
H     -1.509023   -2.973140   -0.195726
H     -1.774503   -2.020116   -1.691517
H     -0.278449   -1.016608    0.826129
H     -1.133054    0.434709   -1.750220
H     -0.018846    2.429125   -0.880496
H      0.430393    1.586303    0.639622
H     -1.516800    2.989247    1.021957
H     -2.423874    2.240666   -0.326754
H     -1.320428    0.797887    2.162680
H     -3.112771    2.354006    2.754919
H     -4.210769    1.624368    1.572039
H     -2.825013    0.201528    3.964548
H     -3.913880    0.562488    6.050448
H     -5.457708    1.422359    6.091819
H     -4.335686    3.329741    4.725288
H     -3.739848    3.065201    6.398933
H     -2.765986    2.461742    5.022868
H     -6.132206    0.907828    2.441761
H     -5.937780    2.401032    3.415325
H     -8.212634    1.218537    3.508883
H     -7.478067    1.500335    5.119247
H     -7.407251   -0.149815    4.368074
H     -4.886732   -1.027714    2.046785
H     -4.108331   -1.800081    3.451501
H     -3.035666   -2.444035    1.314481
H     -1.896268   -1.665406    2.449904
H     -4.469147    0.036387    0.070882
H     -3.274309    0.308383   -1.213999
H     -3.758049   -1.354108   -0.760917
