73

C     -2.372660   -0.712570   -2.190795
C     -2.090329   -2.215693   -2.380210
C     -3.444950   -2.849778   -2.712422
N     -3.616943   -2.997558   -4.158972
C     -3.591989   -4.147507   -4.852404
C     -3.732309   -3.805254   -6.178666
N     -3.828261   -2.462212   -6.254564
N     -3.750262   -1.997181   -5.016290
C     -4.432556   -1.879565   -2.161504
O     -5.632818   -2.107332   -2.122629
C     -3.808971   -0.634315   -1.608889
C     -4.551399    0.619703   -2.114792
C     -3.835611   -0.730185   -0.059668
C     -2.822537    0.199392    0.607568
C     -1.385115   -0.144561    0.143996
C     -1.301617    0.094182   -1.395857
C      0.114269   -0.150702   -1.961905
C      1.182509    0.628145   -1.191350
C      1.115540    0.254297    0.297257
C      2.306063    0.809407    1.097210
C      2.392902    0.143203    2.488985
N      3.065252    1.038608    3.467082
C      2.267720    2.192860    3.949172
C      1.966673    2.114296    5.452794
N      3.211158    2.043314    6.251163
C      2.919279    1.552318    7.606944
C      4.294344    1.254992    5.610866
C      3.770691    0.295504    4.534079
C      1.049532   -0.473536    2.990573
C     -0.250927    0.178224    2.464397
C     -0.259699    0.623212    0.949603
C     -0.525296    2.162852    0.902945
H     -2.388357   -0.281049   -3.219535
H     -1.347170   -2.393319   -3.188595
H     -1.703522   -2.659536   -1.437983
H     -3.550220   -3.833654   -2.203100
H     -3.474407   -5.138470   -4.433368
H     -3.755849   -4.476956   -7.025996
H     -4.017852    1.543027   -1.808150
H     -4.622344    0.613195   -3.224019
H     -5.582958    0.656471   -1.704169
H     -3.611442   -1.771118    0.268381
H     -4.853570   -0.491103    0.319168
H     -2.929921    0.090717    1.705641
H     -3.080611    1.249370    0.355827
H     -1.221570   -1.230183    0.328063
H     -1.534995    1.163058   -1.589332
H      0.367880   -1.231621   -1.912949
H      0.146287    0.156202   -3.030119
H      1.062303    1.720076   -1.346916
H      2.177181    0.347206   -1.601569
H      1.221813   -0.856238    0.326685
H      2.258755    1.912514    1.173817
H      3.250220    0.594997    0.548406
H      3.063886   -0.734366    2.329634
H      2.849616    3.119535    3.756479
H      1.319291    2.305397    3.396408
H      1.313281    1.233991    5.644139
H      1.399519    3.023234    5.748889
H      3.818773    1.658307    8.250691
H      2.609808    0.483524    7.584792
H      2.109319    2.156584    8.070654
H      4.886620    0.675309    6.354992
H      5.004171    1.964252    5.133307
H      3.105967   -0.456104    5.011749
H      4.636310   -0.244746    4.092957
H      1.012556   -0.502222    4.097640
H      1.026896   -1.540085    2.672012
H     -0.510017    1.024650    3.135325
H     -1.050421   -0.567072    2.656586
H      0.272865    2.742888    1.398681
H     -1.457940    2.418569    1.446612
H     -0.626216    2.554716   -0.125618
