76

C     -0.777839   -1.241870   -2.061734
C     -0.693480   -2.500331   -1.177951
C     -1.819026   -3.418865   -1.664975
N     -1.301854   -4.435295   -2.593553
C     -1.117939   -4.334612   -3.937469
N     -0.499645   -5.415402   -4.480538
C     -0.282039   -6.207606   -3.415764
C      0.362172   -7.442719   -3.395380
C      0.521541   -8.077908   -2.149330
C      0.044741   -7.465736   -0.967923
C     -0.598345   -6.215258   -1.022649
C     -0.751068   -5.619891   -2.277295
C     -2.771159   -2.482077   -2.333028
O     -3.866528   -2.833102   -2.746365
C     -2.283921   -1.065618   -2.379457
C     -2.498125   -0.451611   -3.778565
C     -3.032026   -0.263250   -1.282746
C     -2.316361    1.033082   -0.901685
C     -0.888475    0.741168   -0.383177
C     -0.075067    0.034385   -1.509712
C      1.373673   -0.275228   -1.073622
C      2.088683    0.967028   -0.541417
C      1.290615    1.568696    0.626920
C      2.084564    2.678201    1.347115
C      1.310247    3.148737    2.602634
N      2.022504    4.165352    3.424133
C      3.197987    3.616299    4.124150
C      3.716924    4.641321    5.155377
O      3.132064    5.922014    4.990297
C      3.234659    6.325963    3.640071
C      2.364447    5.430166    2.735129
C     -0.103684    3.626594    2.224243
C     -0.886331    2.536544    1.466188
C     -0.147586    2.016492    0.190676
C     -0.113001    3.163058   -0.867648
H     -0.250412   -1.507038   -3.008808
H      0.301382   -2.990617   -1.262614
H     -0.872111   -2.240335   -0.112785
H     -2.326594   -3.905405   -0.803884
H     -1.413546   -3.475349   -4.523762
H      0.735416   -7.895328   -4.304523
H      1.019112   -9.037356   -2.094845
H      0.179046   -7.959663   -0.014392
H     -0.954706   -5.737615   -0.119849
H     -2.037480    0.556411   -3.840423
H     -2.038703   -1.088267   -4.564232
H     -3.582127   -0.357646   -4.002848
H     -3.139187   -0.877921   -0.359789
H     -4.063009   -0.023332   -1.623986
H     -2.924822    1.524350   -0.116837
H     -2.290331    1.706636   -1.783061
H     -0.986427    0.019096    0.458352
H     -0.006755    0.728820   -2.373241
H      1.945464   -0.679305   -1.936844
H      1.378801   -1.046342   -0.273490
H      3.095448    0.657661   -0.182197
H      2.242565    1.709932   -1.352622
H      1.175310    0.748806    1.375513
H      3.065848    2.262682    1.656820
H      2.285486    3.509372    0.645652
H      1.156100    2.251312    3.246101
H      4.011390    3.393829    3.398297
H      2.935695    2.672820    4.652343
H      4.826046    4.717129    5.102710
H      3.466928    4.282111    6.175870
H      4.297519    6.306638    3.302648
H      2.892421    7.379555    3.556210
H      2.920398    5.249300    1.792833
H      1.432629    5.983816    2.495880
H     -0.659516    3.883435    3.152734
H     -0.060946    4.544356    1.604318
H     -1.874957    2.965340    1.200851
H     -1.074521    1.691144    2.164697
H      0.492082    4.027420   -0.535951
H      0.305434    2.836636   -1.837783
H     -1.133568    3.556276   -1.055207
