80

C      2.058574    0.580919    1.879232
C      2.300415   -0.926054    2.130510
C      3.728678   -1.054341    2.680450
N      3.760733   -1.561873    4.061744
C      4.088100   -2.833362    4.408031
N      3.965173   -3.085267    5.735657
C      3.532823   -1.912026    6.227952
C      3.229808   -1.615997    7.554936
C      2.776948   -0.318195    7.849846
C      2.642031    0.640606    6.822408
C      2.955828    0.308575    5.491983
C      3.400476   -0.989025    5.228585
C      4.311433    0.309087    2.531659
O      5.422442    0.609260    2.943509
C      3.461156    1.212600    1.691557
C      3.509388    2.672707    2.192161
C      3.960558    1.105380    0.225298
C      2.923591    1.574154   -0.796428
C      1.619346    0.750196   -0.676493
C      1.037657    0.934340    0.757123
C     -0.287983    0.168417    0.950827
C     -1.307289    0.517182   -0.134138
C     -0.719151    0.225128   -1.525686
C     -1.794903    0.346399   -2.625192
C     -1.263401   -0.047730   -4.032467
N     -2.276795    0.239031   -5.100023
C     -3.537630   -0.515467   -4.921465
C     -4.620019   -0.010002   -5.899625
N     -4.073303    0.496516   -7.177471
C     -3.924874    1.962913   -7.180334
C     -2.820930   -0.185839   -7.541914
C     -1.731157   -0.028792   -6.458897
C      0.061332    0.716701   -4.316217
C      1.100205    0.607805   -3.188359
C      0.560272    1.072782   -1.807726
C      0.256211    2.602161   -1.867365
H      1.620370    0.978621    2.822378
H      2.228298   -1.500012    1.182191
H      1.547671   -1.332075    2.841813
H      4.313194   -1.739919    2.025741
H      4.405968   -3.583800    3.695629
H      3.337131   -2.359897    8.333699
H      2.532261   -0.051821    8.869976
H      2.296823    1.638434    7.059894
H      2.858099    1.045522    4.718735
H      3.233108    2.743780    3.263690
H      2.804183    3.308780    1.618746
H      4.532058    3.091198    2.074202
H      4.892158    1.699641    0.097076
H      4.222491    0.050677   -0.019673
H      2.726987    2.655669   -0.645119
H      3.373849    1.449785   -1.801060
H      1.896499   -0.321886   -0.787988
H      0.805133    2.011128    0.898597
H     -0.111764   -0.928430    0.925986
H     -0.721110    0.419353    1.943724
H     -2.212684   -0.107451    0.029178
H     -1.618961    1.579370   -0.045383
H     -0.418125   -0.849460   -1.519068
H     -2.236744    1.364414   -2.647952
H     -2.597381   -0.357314   -2.326997
H     -1.035724   -1.138770   -4.021030
H     -3.966434   -0.381168   -3.912307
H     -3.359932   -1.604588   -5.074469
H     -5.237712    0.769077   -5.397110
H     -5.312579   -0.849974   -6.121812
H     -4.921730    2.441558   -7.073588
H     -3.272567    2.311935   -6.351716
H     -3.498876    2.306983   -8.147219
H     -3.035467   -1.267929   -7.687066
H     -2.445206    0.188311   -8.520099
H     -1.094124    0.829791   -6.761882
H     -1.102063   -0.947892   -6.463614
H     -0.158244    1.783983   -4.530951
H      0.550021    0.298853   -5.221429
H      1.439715   -0.450264   -3.126644
H      1.978112    1.215421   -3.491156
H      1.137270    3.162950   -2.242417
H     -0.578527    2.841069   -2.552358
H     -0.013307    3.020590   -0.880030
