75

C      0.531226   -0.662079   -2.136163
C      1.911078    0.020340   -2.018048
C      2.867583   -0.815999   -2.872477
N      3.098081   -0.189407   -4.179706
N      2.261530   -0.238664   -5.214456
N      2.713134    0.493501   -6.232814
C      3.867319    1.036227   -5.808366
C      4.720853    1.908775   -6.477510
C      5.869173    2.348232   -5.788956
C      6.115118    1.921749   -4.462262
C      5.220703    1.047354   -3.813314
C      4.106018    0.627538   -4.532534
C      2.166229   -2.124559   -3.015045
O      2.672626   -3.092612   -3.566387
C      0.835037   -2.170352   -2.334392
C     -0.221622   -2.848001   -3.228690
C      1.013677   -2.928238   -0.992461
C     -0.095781   -2.628082    0.017938
C     -0.150281   -1.111241    0.323356
C     -0.483244   -0.349379   -0.993297
C     -0.615049    1.171980   -0.772623
C     -1.592666    1.500646    0.353224
C     -1.146563    0.811817    1.653404
C     -1.989379    1.290703    2.854829
C     -1.638524    0.586980    4.202518
N     -2.864510   -0.047298    4.783799
C     -3.775835    0.995879    5.320140
C     -5.102575    0.362813    5.797511
O     -5.010028   -1.043631    5.941473
C     -3.848881   -1.359432    6.683225
C     -2.586693   -1.041372    5.851474
C     -0.421001   -0.369599    4.030939
C     -0.562822   -1.365418    2.867759
C     -1.113791   -0.749476    1.525057
C     -2.541883   -1.327563    1.284953
H      0.081646   -0.268146   -3.079273
H      2.262896    0.008406   -0.967380
H      1.873803    1.073646   -2.365100
H      3.831223   -0.973737   -2.338342
H      4.516305    2.231247   -7.487111
H      6.559224    3.031828   -6.267860
H      6.995395    2.271256   -3.938348
H      5.401247    0.726758   -2.795586
H     -0.257719   -2.369702   -4.231077
H     -1.229535   -2.767654   -2.773148
H      0.013621   -3.926215   -3.366811
H      1.983801   -2.647737   -0.520851
H      1.052567   -4.024737   -1.176282
H      0.110689   -3.209622    0.938307
H     -1.064832   -2.988908   -0.387849
H      0.871439   -0.793578    0.634492
H     -1.470521   -0.704245   -1.357875
H     -0.969999    1.653471   -1.709205
H      0.366603    1.620190   -0.512724
H     -1.601882    2.604613    0.499665
H     -2.622420    1.199623    0.070353
H     -0.107661    1.163290    1.841840
H     -1.842545    2.386723    2.978363
H     -3.063051    1.156710    2.607031
H     -1.278941    1.374289    4.908231
H     -3.293230    1.522804    6.174996
H     -4.012126    1.766262    4.555651
H     -5.895309    0.579496    5.049889
H     -5.422659    0.823158    6.756595
H     -3.866882   -2.440696    6.946775
H     -3.824831   -0.794512    7.647510
H     -2.255765   -1.994312    5.379072
H     -1.788795   -0.679141    6.542518
H      0.485116    0.253098    3.848641
H     -0.184095   -0.927903    4.959208
H     -1.195527   -2.214566    3.212489
H      0.449903   -1.799368    2.719949
H     -2.980752   -1.006600    0.319773
H     -3.240666   -1.035144    2.096200
H     -2.525382   -2.435686    1.291807
