74

C     -3.016355    0.300327    2.512177
C     -3.837312    1.288006    1.659815
C     -5.298881    1.070970    2.073235
N     -5.726907    2.040832    3.084397
C     -6.917263    2.661640    3.141759
N     -7.012676    3.430812    4.244293
C     -5.817259    3.230479    4.843183
N     -5.031178    2.380221    4.155312
C     -5.300430   -0.304243    2.645189
O     -6.325784   -0.881813    2.975524
C     -3.939220   -0.927634    2.718355
C     -3.708713   -1.580697    4.096668
C     -3.823220   -1.960899    1.567269
C     -2.374918   -2.309937    1.223836
C     -1.590177   -1.044309    0.804463
C     -1.586490   -0.037975    1.994529
C     -0.796144    1.247875    1.670049
C      0.616515    0.939590    1.172506
C      0.548068    0.023276   -0.059595
C      1.927617   -0.125330   -0.731414
C      1.794170   -0.936829   -2.044456
N      3.071426   -1.109370   -2.794621
C      4.226478   -1.472676   -1.950952
C      3.394916    0.059217   -3.641598
C      2.524317    0.076569   -4.870588
C      2.676734   -0.914974   -5.853606
C      1.857181   -0.915178   -6.986928
C      0.878208    0.070026   -7.144051
C      0.718002    1.057640   -6.168336
C      1.537853    1.063966   -5.035521
C      1.137170   -2.303644   -1.787288
C     -0.220067   -2.158227   -1.072405
C     -0.135025   -1.351151    0.263015
C      0.679605   -2.187220    1.299118
H     -2.877841    0.801194    3.498915
H     -3.516073    2.339952    1.825410
H     -3.725899    1.050962    0.579956
H     -5.960791    1.120804    1.180159
H     -7.707105    2.548850    2.409119
H     -5.530151    3.689957    5.780331
H     -4.394865   -2.442134    4.240891
H     -3.896067   -0.849325    4.912399
H     -2.664465   -1.943248    4.190699
H     -4.367324   -2.892496    1.837004
H     -4.305828   -1.566971    0.643460
H     -2.402087   -3.046199    0.396355
H     -1.902536   -2.800864    2.099844
H     -2.152922   -0.568440   -0.030514
H     -1.070034   -0.520462    2.850985
H     -0.725598    1.881242    2.580933
H     -1.320989    1.836234    0.887272
H      1.223255    0.482984    1.983208
H      1.103211    1.900685    0.895440
H     -0.093726    0.552526   -0.803670
H      2.641925   -0.593191   -0.025528
H      2.320371    0.885921   -0.970135
H      1.073552   -0.384265   -2.687996
H      3.972156   -2.295628   -1.252553
H      4.594637   -0.597727   -1.370276
H      5.054943   -1.840155   -2.593767
H      4.451639    0.010655   -3.990597
H      3.298464    1.007341   -3.067855
H      3.429205   -1.685923   -5.740903
H      1.979165   -1.680083   -7.742490
H      0.242289    0.066543   -8.020195
H     -0.043343    1.817976   -6.288781
H      1.397589    1.832228   -4.285026
H      0.968574   -2.808040   -2.763697
H      1.803917   -2.962554   -1.196217
H     -0.607531   -3.181657   -0.889853
H     -0.930837   -1.659267   -1.768644
H      0.254061   -3.206543    1.403092
H      0.693560   -1.725214    2.303756
H      1.733998   -2.323757    0.995943
