77

C      0.236328    2.245641    1.294943
C     -0.601631    2.951653    0.205020
C     -1.699777    3.729174    0.934695
N     -1.542183    5.180974    0.760074
N     -2.117738    5.834360   -0.247233
N     -1.745880    7.111753   -0.278288
C     -0.888954    7.264225    0.745009
C     -0.226022    8.418108    1.149352
C      0.605990    8.325356    2.282328
C      0.763475    7.093229    2.957391
C      0.082740    5.942729    2.510674
C     -0.745212    6.072151    1.390350
C     -1.619448    3.253339    2.346996
O     -2.328567    3.691621    3.240060
C     -0.709602    2.070626    2.508968
C      0.061569    2.107244    3.846308
C     -1.575138    0.783967    2.403237
C     -0.760297   -0.461619    2.047075
C     -0.019561   -0.265147    0.702550
C      0.960311    0.939328    0.844699
C      1.797322    1.181730   -0.431888
C      2.475828   -0.093171   -0.938022
C      1.425895   -1.191196   -1.164588
C      2.024007   -2.406987   -1.902109
C      0.923624   -3.440354   -2.204722
N      1.467119   -4.613535   -2.919844
C      2.485339   -5.488318   -2.324671
C      0.932379   -4.952133   -4.211008
C      0.259852   -6.168802   -4.400851
C     -0.338536   -6.454472   -5.630942
C     -0.248486   -5.539196   -6.684254
C      0.430760   -4.330597   -6.505134
C      1.016378   -4.034189   -5.271713
C      0.182153   -3.867407   -0.929719
C     -0.391346   -2.651688   -0.181457
C      0.684753   -1.572156    0.164187
C      1.656896   -2.160898    1.231390
H      1.035075    2.970856    1.578318
H      0.039300    3.618483   -0.415534
H     -1.078084    2.212701   -0.472484
H     -2.692626    3.427021    0.532747
H     -0.363619    9.356066    0.627212
H      1.118810    9.207386    2.638804
H      1.396033    7.035444    3.836739
H      0.183519    5.015462    3.045851
H     -0.643105    2.036584    4.700988
H      0.773647    1.261494    3.913608
H      0.648718    3.038134    3.954613
H     -2.362136    0.904704    1.623065
H     -2.107484    0.606306    3.362572
H     -1.472063   -1.309718    1.984297
H     -0.044043   -0.683995    2.866686
H     -0.786948    0.012182   -0.053247
H      1.682749    0.699471    1.655741
H      1.160722    1.581396   -1.249101
H      2.581805    1.937372   -0.214014
H      3.257662   -0.425213   -0.222121
H      2.982765    0.137730   -1.899784
H      0.669857   -0.760519   -1.863537
H      2.856456   -2.848194   -1.318514
H      2.454390   -2.070823   -2.870106
H      0.171798   -2.935676   -2.857386
H      3.370964   -5.532363   -2.993535
H      2.081677   -6.512739   -2.191991
H      2.814193   -5.119740   -1.330956
H      0.162095   -6.874875   -3.585485
H     -0.866465   -7.388564   -5.767972
H     -0.706660   -5.766890   -7.637431
H      0.493344   -3.619753   -7.318976
H      1.525223   -3.086512   -5.134559
H     -0.655343   -4.540979   -1.212745
H      0.847133   -4.443582   -0.254819
H     -0.879650   -3.032603    0.739468
H     -1.192357   -2.200935   -0.809864
H      1.091365   -2.566852    2.095554
H      2.366361   -1.408099    1.620116
H      2.260001   -2.996644    0.829110
