78

C      2.032426    2.438505    0.926870
C      2.224440    2.122992    2.422296
C      3.717430    2.340089    2.698106
N      3.958671    3.658510    3.302526
C      3.996964    4.869051    2.686388
N      4.133627    5.910221    3.548337
C      4.170651    5.307052    4.749432
C      4.268399    5.913733    5.998423
C      4.241923    5.083368    7.133980
C      4.116314    3.682723    6.992895
C      4.013823    3.100735    5.716400
C      4.054890    3.954558    4.609967
C      4.345545    2.228317    1.350364
O      5.554670    2.252763    1.179478
C      3.356860    2.012889    0.246524
C      3.681507    2.903411   -0.969685
C      3.373886    0.506282   -0.122346
C      2.116829    0.059904   -0.869453
C      0.844553    0.331870   -0.030275
C      0.750118    1.861095    0.259211
C     -0.509969    2.220299    1.072502
C     -1.778126    1.696932    0.401171
C     -1.685153    0.173714    0.224989
C     -3.029446   -0.416599   -0.243566
C     -2.958821   -1.953993   -0.309236
N     -4.246643   -2.521143   -0.765920
C     -5.330533   -2.686113    0.205527
C     -4.491436   -2.942492   -2.125927
C     -4.354538   -2.041783   -3.197940
C     -4.635936   -2.451380   -4.504779
C     -5.066157   -3.757241   -4.753786
C     -5.217767   -4.655397   -3.695195
C     -4.931053   -4.253230   -2.387119
C     -1.756795   -2.446933   -1.145209
C     -0.432763   -1.806771   -0.687526
C     -0.477639   -0.245480   -0.682042
C     -0.639918    0.262011   -2.149922
H      1.944918    3.549287    0.863764
H      1.966882    1.062633    2.632236
H      1.588254    2.774156    3.060687
H      4.116225    1.532658    3.349238
H      3.910717    5.002031    1.618070
H      4.353044    6.988086    6.095272
H      4.314608    5.519956    8.121861
H      4.094182    3.055048    7.874440
H      3.904909    2.030477    5.606345
H      2.886186    2.825921   -1.739855
H      3.764334    3.968105   -0.664833
H      4.648418    2.602701   -1.427590
H      4.268828    0.275194   -0.741247
H      3.459272   -0.114004    0.798168
H      2.223402   -1.023763   -1.075108
H      2.071354    0.589429   -1.843454
H      0.975040   -0.186393    0.946508
H      0.662435    2.392677   -0.712285
H     -0.588442    3.323811    1.172384
H     -0.449978    1.789262    2.095912
H     -1.939429    2.203525   -0.573310
H     -2.644747    1.947929    1.050690
H     -1.507335   -0.248441    1.243046
H     -3.816570   -0.132506    0.487662
H     -3.335198    0.021954   -1.210689
H     -2.778490   -2.318928    0.728194
H     -6.292310   -2.362923   -0.242976
H     -5.409278   -3.749578    0.510530
H     -5.155169   -2.070009    1.108336
H     -4.040410   -1.022821   -3.031994
H     -4.526234   -1.752618   -5.324856
H     -5.285220   -4.068657   -5.767313
H     -5.560589   -5.664984   -3.887641
H     -5.049057   -4.963891   -1.577350
H     -1.900101   -2.239868   -2.222555
H     -1.675219   -3.550173   -1.039168
H     -0.194840   -2.179187    0.334933
H      0.362452   -2.177931   -1.367355
H     -0.552733    1.361749   -2.231583
H     -1.615021   -0.013746   -2.591397
H      0.130050   -0.188800   -2.809052
