74

C      1.979762   -0.585670    1.434656
C      1.157983   -1.819029    1.853208
C      2.189302   -2.871826    2.269812
N      2.394750   -2.853546    3.722004
N      3.236941   -2.050908    4.370077
N      3.123236   -2.198608    5.689317
C      2.160114   -3.119985    5.869985
C      1.634694   -3.610182    7.061545
C      0.589900   -4.551507    6.969797
C      0.103280   -4.963916    5.705521
C      0.658929   -4.441982    4.520532
C      1.698621   -3.522149    4.655175
C      3.425150   -2.453764    1.546758
O      4.438275   -3.136937    1.517293
C      3.282281   -1.153801    0.815667
C      4.486833   -0.231876    1.094625
C      3.137301   -1.467040   -0.696557
C      2.513640   -0.316460   -1.486230
C      1.109189    0.027540   -0.937156
C      1.244000    0.466486    0.552223
C     -0.116561    0.855874    1.169341
C     -0.847833    1.899670    0.323943
C     -1.037634    1.374066   -1.108608
C     -1.968574    2.288774   -1.928469
C     -2.273756    1.683824   -3.321118
N     -3.100162    2.624159   -4.127666
C     -4.394546    2.928842   -3.500965
C     -5.358705    3.306251   -4.614677
C     -4.726846    2.782994   -5.890315
C     -3.450837    2.086673   -5.449261
C     -0.945870    1.366560   -4.050509
C      0.000038    0.486501   -3.213537
C      0.328388    1.087979   -1.814288
C      1.177876    2.382556   -2.009484
H      2.242440   -0.067406    2.387465
H      0.457449   -1.580946    2.683718
H      0.571798   -2.205287    0.991861
H      1.878582   -3.884382    1.931673
H      2.007890   -3.276596    8.021102
H      0.151830   -4.956987    7.872585
H     -0.704284   -5.682292    5.648798
H      0.287114   -4.743818    3.550633
H      4.325626    0.771331    0.648194
H      5.416829   -0.662607    0.665558
H      4.638631   -0.104235    2.188442
H      2.497690   -2.367235   -0.844602
H      4.131576   -1.709942   -1.131964
H      3.186918    0.564696   -1.438005
H      2.452374   -0.639782   -2.544252
H      0.509677   -0.910285   -0.953601
H      1.881137    1.375522    0.586856
H      0.041405    1.266911    2.190332
H     -0.770179   -0.038503    1.260041
H     -0.293654    2.861783    0.330406
H     -1.840838    2.087385    0.788233
H     -1.579902    0.403069   -1.015430
H     -1.544740    3.309287   -2.031756
H     -2.919274    2.392161   -1.362782
H     -2.824953    0.725601   -3.173071
H     -4.285017    3.776444   -2.790390
H     -4.799574    2.043649   -2.957602
H     -6.356898    2.846492   -4.444749
H     -5.471690    4.411809   -4.668802
H     -5.404884    2.075488   -6.416116
H     -4.484326    3.629628   -6.570170
H     -2.636243    2.292719   -6.176627
H     -3.635748    0.988291   -5.402666
H     -1.158061    0.812177   -4.989143
H     -0.438295    2.310382   -4.341885
H      0.926731    0.343128   -3.807079
H     -0.469962   -0.514931   -3.093558
H      2.063286    2.179116   -2.646946
H      0.612103    3.187149   -2.514566
H      1.541729    2.801728   -1.053068
