79

C      3.129152    0.110418   -0.219212
C      3.089603   -0.155807   -1.735955
C      4.191674    0.725485   -2.331551
N      5.434204   -0.034806   -2.501665
N      6.287635   -0.334034   -1.524134
N      7.279108   -1.104202   -1.970140
C      7.025976   -1.302385   -3.276436
C      7.744299   -2.057223   -4.198228
C      7.237723   -2.128787   -5.511284
C      6.040105   -1.457091   -5.857002
C      5.338457   -0.704094   -4.894686
C      5.878446   -0.651134   -3.609208
C      4.365423    1.802486   -1.315535
O      5.068476    2.784352   -1.505298
C      3.551922    1.594857   -0.075225
C      4.410069    1.816293    1.187152
C      2.344084    2.565943   -0.126967
C      1.201916    2.144800    0.796430
C      0.687310    0.733890    0.425321
C      1.855302   -0.285093    0.586005
C      1.415648   -1.727091    0.257461
C      0.183808   -2.141215    1.062853
C     -0.970493   -1.160334    0.800325
C     -2.289171   -1.667878    1.418083
C     -3.463429   -0.728191    1.054630
N     -4.763983   -1.133801    1.653962
C     -4.817999   -1.276515    3.131059
C     -5.020282   -2.729555    3.588864
N     -4.378416   -3.641486    2.632525
C     -4.339460   -5.009826    3.168498
C     -5.086965   -3.614978    1.336865
C     -5.494810   -2.186000    0.916455
C     -3.153747    0.741668    1.402954
C     -1.811327    1.210513    0.814859
C     -0.609213    0.303588    1.224251
C     -0.382581    0.431320    2.762653
H      3.956809   -0.527988    0.171891
H      3.256536   -1.230895   -1.967790
H      2.108996    0.152163   -2.157738
H      3.863308    1.169243   -3.296173
H      8.653960   -2.572397   -3.918079
H      7.764708   -2.707008   -6.259043
H      5.658347   -1.525113   -6.867337
H      4.417192   -0.198109   -5.149032
H      5.327760    1.190117    1.152772
H      3.841353    1.548126    2.101685
H      4.722258    2.879254    1.266364
H      1.939684    2.624887   -1.163343
H      2.670774    3.593410    0.144777
H      0.397879    2.898558    0.685655
H      1.554732    2.175940    1.848259
H      0.411664    0.755346   -0.652996
H      2.169707   -0.282036    1.651299
H      1.175693   -1.821966   -0.823727
H      2.246235   -2.430307    0.484356
H      0.428069   -2.194250    2.144645
H     -0.114110   -3.162927    0.740370
H     -1.134583   -1.160697   -0.303221
H     -2.497351   -2.670914    0.993881
H     -2.177756   -1.796663    2.511911
H     -3.561458   -0.751963   -0.055068
H     -5.662172   -0.664268    3.511681
H     -3.906209   -0.874266    3.617386
H     -4.571845   -2.845980    4.600958
H     -6.108952   -2.952900    3.670704
H     -3.705384   -5.041494    4.080463
H     -5.360228   -5.374331    3.422670
H     -3.881295   -5.699033    2.426531
H     -4.420316   -4.042416    0.556815
H     -6.003830   -4.247977    1.369651
H     -5.377378   -2.065903   -0.182152
H     -6.579959   -2.054421    1.120046
H     -3.153481    0.909043    2.498268
H     -3.961694    1.383175    0.987987
H     -1.903956    1.239116   -0.293749
H     -1.652193    2.254035    1.155909
H      0.525934   -0.098310    3.104195
H     -0.286261    1.496305    3.058602
H     -1.227319    0.024456    3.348852
