69

C     -2.002052    1.552710    0.899395
C     -1.980449    0.590795    2.103007
C     -2.385222    1.439400    3.313516
N     -3.815212    1.307909    3.601363
C     -4.365796    0.866247    4.744243
N     -5.710671    0.871547    4.669785
C     -5.932256    1.339964    3.421404
N     -4.789522    1.608887    2.761128
C     -2.066421    2.831400    2.889167
O     -2.137468    3.787145    3.647995
C     -1.594172    2.934795    1.471176
C     -2.314589    4.083198    0.735359
C     -0.057235    3.142168    1.492701
C      0.610972    2.786781    0.165055
C      0.339152    1.310452   -0.207329
C     -1.198857    1.104283   -0.358220
C     -1.557233   -0.342848   -0.760880
C     -0.788743   -0.797367   -2.003030
C      0.722871   -0.663672   -1.760293
C      1.540249   -1.326240   -2.888370
C      3.042775   -1.295081   -2.551906
N      3.823963   -2.011533   -3.596516
C      4.055342   -1.255228   -4.843795
C      4.756707   -2.164590   -5.857801
O      5.994824   -2.618139   -5.343529
C      5.778119   -3.384494   -4.173030
C      5.100107   -2.543136   -3.083059
C      3.518985    0.150819   -2.276302
C      2.678315    0.818735   -1.171408
C      1.145484    0.819079   -1.476881
C      0.878292    1.752169   -2.699327
H     -3.070083    1.607606    0.581927
H     -0.954222    0.195693    2.262743
H     -2.673220   -0.266664    1.954270
H     -1.777782    1.159850    4.203088
H     -3.806677    0.546601    5.614420
H     -6.917693    1.482703    2.998908
H     -2.051405    4.085442   -0.342619
H     -2.030076    5.065280    1.169668
H     -3.417260    3.974769    0.823027
H      0.406414    2.511878    2.285919
H      0.180637    4.198222    1.748248
H      1.697378    2.967281    0.286332
H      0.238060    3.471686   -0.624669
H      0.675426    0.686296    0.651000
H     -1.554770    1.760112   -1.180876
H     -1.323621   -1.043989    0.069116
H     -2.647409   -0.412538   -0.967601
H     -1.042570   -1.862286   -2.197879
H     -1.107737   -0.214443   -2.892348
H      0.942307   -1.257785   -0.841597
H      1.329607   -0.838842   -3.860303
H      1.228214   -2.389429   -2.986742
H      3.148570   -1.854942   -1.593366
H      3.095014   -0.911844   -5.280491
H      4.709890   -0.374307   -4.663750
H      4.950645   -1.584554   -6.784643
H      4.101070   -3.021852   -6.133290
H      6.760990   -3.734985   -3.793684
H      5.169634   -4.289433   -4.399968
H      5.780149   -1.716948   -2.779277
H      4.918445   -3.197323   -2.202407
H      3.464156    0.774525   -3.190547
H      4.579724    0.136853   -1.948115
H      3.056338    1.855252   -1.052453
H      2.872474    0.287860   -0.213064
H      1.324654    1.364116   -3.633360
H     -0.199219    1.893856   -2.900693
H      1.324038    2.754501   -2.533736
