68

C      2.869827    1.541358   -1.671670
C      2.809429    3.001101   -1.147960
C      3.938989    3.187427   -0.131306
N      4.924516    4.170494   -0.589363
C      5.700238    4.113146   -1.688095
N      6.471010    5.212621   -1.797783
C      6.113022    5.929715   -0.709322
N      5.175879    5.308239    0.032119
C      4.551450    1.842731    0.019931
O      5.474099    1.630817    0.793264
C      3.935698    0.773260   -0.826339
C      5.015427    0.147264   -1.733016
C      3.317919   -0.339396    0.070777
C      2.016623    0.106068    0.752524
C      0.926886    0.594231   -0.251985
C      1.499602    0.810287   -1.687140
C      0.464908    1.500187   -2.594099
C     -0.830349    0.680735   -2.659007
C     -1.402970    0.430363   -1.246279
C     -2.755315   -0.317204   -1.312407
C     -3.326620   -0.730722    0.085264
N     -3.351995   -2.213890    0.256220
C     -3.888291   -2.628947    1.561919
C     -4.486362   -4.014717    1.393225
C     -4.710076   -4.178053   -0.096410
C     -4.221889   -2.883903   -0.725850
C     -2.533661   -0.031681    1.220690
C     -1.021322   -0.327714    1.167284
C     -0.388757   -0.271357   -0.273713
C     -0.080723   -1.728777   -0.737087
H      3.215439    1.599751   -2.729971
H      1.845799    3.237604   -0.655204
H      2.906237    3.712720   -1.997691
H      3.518985    3.503291    0.849671
H      5.696868    3.302634   -2.403637
H      6.533255    6.895645   -0.461719
H      5.527719    0.923019   -2.340031
H      4.554574   -0.587161   -2.427660
H      5.780509   -0.380070   -1.123100
H      3.099111   -1.244244   -0.538559
H      4.047142   -0.654033    0.849880
H      1.649372   -0.726612    1.387339
H      2.259834    0.933834    1.455099
H      0.608952    1.592805    0.121596
H      1.707713   -0.177777   -2.149165
H      0.876005    1.602151   -3.621838
H      0.232587    2.519723   -2.218423
H     -1.573765    1.249090   -3.260101
H     -0.646431   -0.275603   -3.191897
H     -1.619773    1.444834   -0.839134
H     -2.632187   -1.192609   -1.979359
H     -3.494426    0.346528   -1.813145
H     -4.370835   -0.343100    0.149082
H     -4.690178   -1.936157    1.908298
H     -3.073936   -2.658895    2.317253
H     -5.444868   -4.099982    1.952528
H     -3.780099   -4.791669    1.765077
H     -4.118457   -5.039931   -0.477873
H     -5.785614   -4.347363   -0.324386
H     -3.654203   -3.125072   -1.649339
H     -5.101683   -2.252500   -0.989168
H     -2.927402   -0.298511    2.222705
H     -2.691041    1.066530    1.141497
H     -0.534253    0.409354    1.843043
H     -0.843021   -1.319827    1.638346
H     -0.973548   -2.376325   -0.651103
H      0.707187   -2.192632   -0.110034
H      0.252933   -1.787022   -1.789307
