68

C      2.123631    2.693522   -1.017982
C      1.885644    2.762755   -2.550193
C      1.099715    4.039063   -2.858842
N      1.846886    4.912485   -3.770416
C      2.887604    5.714944   -3.476674
C      3.351770    6.206077   -4.674753
N      2.599026    5.677774   -5.661849
N      1.700930    4.892700   -5.086366
C      0.864924    4.678160   -1.538704
O      0.254800    5.730916   -1.423975
C      1.403575    3.916623   -0.367809
C      2.404083    4.800017    0.405463
C      0.248445    3.503681    0.586430
C     -0.634733    2.391172    0.005470
C      0.161057    1.118789   -0.425453
C      1.705555    1.345351   -0.367077
C      2.482094    0.144784   -0.945849
C      2.079072   -1.165020   -0.256474
C      0.555513   -1.381501   -0.352212
C      0.144671   -2.771469    0.170520
C     -1.355898   -3.051544   -0.090952
N     -1.740667   -4.370567    0.483852
C     -3.166673   -4.681911    0.302086
C     -3.301442   -6.195586    0.305282
C     -1.909726   -6.725012    0.012091
C     -1.037153   -5.492656   -0.157284
C     -2.209703   -1.912678    0.520242
C     -1.769214   -0.515576    0.043839
C     -0.261463   -0.215906    0.303281
C     -0.016119   -0.107635    1.840515
H      3.223273    2.790513   -0.863601
H      1.319109    1.892724   -2.940042
H      2.866657    2.761193   -3.077114
H      0.114611    3.782285   -3.308750
H      3.284800    5.907969   -2.489765
H      4.183552    6.880580   -4.822621
H      1.894731    5.694669    0.823838
H      3.228176    5.143397   -0.254301
H      2.852054    4.227330    1.245610
H     -0.387200    4.385978    0.820438
H      0.662303    3.147433    1.555996
H     -1.172925    2.798929   -0.878649
H     -1.418599    2.167371    0.753148
H     -0.095763    0.965648   -1.497063
H      2.020344    1.428068    0.694196
H      3.573172    0.302867   -0.802533
H      2.297822    0.043492   -2.036591
H      2.418471   -1.164374    0.801064
H      2.606357   -2.000278   -0.767842
H      0.318229   -1.389800   -1.442803
H      0.377137   -2.877407    1.251429
H      0.754132   -3.527603   -0.368326
H     -1.528063   -3.054267   -1.193327
H     -3.763524   -4.244230    1.131989
H     -3.545126   -4.288530   -0.671021
H     -4.028229   -6.527741   -0.468737
H     -3.642610   -6.549893    1.303688
H     -1.903156   -7.346862   -0.910713
H     -1.547311   -7.338322    0.865608
H     -0.885267   -5.308094   -1.247802
H     -0.047312   -5.656337    0.324538
H     -2.187434   -1.974396    1.629558
H     -3.271366   -2.034911    0.215280
H     -1.983623   -0.437476   -1.045518
H     -2.417574    0.225891    0.554249
H      1.042915    0.080486    2.094808
H     -0.614860    0.714008    2.282181
H     -0.300763   -1.031194    2.377108
