71

C     -2.653546    1.246182    1.981781
C     -1.814913    1.719932    3.199199
C     -2.013995    3.230714    3.352007
N     -2.748384    3.559324    4.575294
C     -2.396897    4.472946    5.494623
N     -3.310126    4.547385    6.482386
C     -4.229596    3.634641    6.097657
N     -3.902956    3.028566    4.938126
C     -2.791649    3.640693    2.158731
O     -3.064620    4.810144    1.929669
C     -3.214358    2.516590    1.267899
C     -4.754601    2.475779    1.201220
C     -2.643511    2.712967   -0.164965
C     -1.132354    2.454113   -0.241941
C     -0.710393    1.044903    0.282297
C     -1.889297    0.312048    1.002247
C     -1.421237   -0.992309    1.674545
C     -0.737052   -1.917573    0.660350
C      0.438308   -1.193421   -0.023973
C      1.253389   -2.147257   -0.917498
C      2.520990   -1.439031   -1.427325
N      3.328442   -2.337213   -2.273660
C      4.725473   -2.589489   -1.919634
C      2.845829   -2.802864   -3.544623
C      3.216824   -2.139102   -4.723334
C      2.766332   -2.603450   -5.962973
C      1.953664   -3.738571   -6.031614
C      1.599128   -4.416553   -4.861234
C      2.050289   -3.955208   -3.620511
C      2.175747   -0.136097   -2.169888
C      1.299168    0.798646   -1.312629
C     -0.001446    0.114258   -0.776066
C     -0.956461   -0.182027   -1.974096
H     -3.502727    0.652729    2.395274
H     -2.129447    1.171945    4.115263
H     -0.732976    1.517161    3.074928
H     -1.027773    3.747206    3.341418
H     -1.500050    5.076779    5.452050
H     -5.126906    3.412506    6.659939
H     -5.150571    3.389594    0.708026
H     -5.091015    1.589917    0.621154
H     -5.192184    2.414816    2.221477
H     -3.151400    2.025219   -0.876797
H     -2.853144    3.744953   -0.522920
H     -0.817098    2.627992   -1.288087
H     -0.615044    3.234477    0.359591
H      0.062247    1.243073    1.056146
H     -2.644576    0.010966    0.246583
H     -0.711856   -0.773492    2.500751
H     -2.295852   -1.523179    2.109898
H     -1.472575   -2.283032   -0.087122
H     -0.354927   -2.807764    1.206358
H      1.125729   -0.893012    0.802286
H      0.629782   -2.508406   -1.759709
H      1.563204   -3.036282   -0.325385
H      3.122560   -1.152261   -0.533586
H      5.159447   -3.387914   -2.560252
H      4.794252   -2.919665   -0.862121
H      5.316686   -1.659605   -2.054731
H      3.845834   -1.259255   -4.676981
H      3.048147   -2.084797   -6.870530
H      1.603461   -4.095152   -6.991289
H      0.977623   -5.300770   -4.916698
H      1.785533   -4.495675   -2.720359
H      1.665397   -0.353906   -3.130173
H      3.120358    0.393622   -2.421132
H      1.912034    1.159454   -0.455847
H      1.058770    1.686738   -1.932923
H     -0.482312   -0.821832   -2.741328
H     -1.258156    0.753630   -2.485776
H     -1.880900   -0.704012   -1.666490
