75

C     -1.553352    0.033156    1.130127
C     -1.502079    1.543350    1.462978
C     -2.715320    2.185547    0.774851
N     -3.666683    2.765741    1.733666
C     -3.738075    4.086407    2.045603
N     -4.639645    4.369212    3.020589
C     -5.135622    3.159235    3.332791
C     -6.112592    2.867371    4.282067
C     -6.478309    1.518907    4.454710
C     -5.849287    0.506260    3.697688
C     -4.871048    0.835729    2.741343
C     -4.546277    2.184547    2.574992
C     -3.295134    1.095652   -0.060013
O     -4.342110    1.212931   -0.679186
C     -2.386028   -0.089391   -0.172355
C     -3.175099   -1.415326   -0.231254
C     -1.518240    0.107256   -1.443282
C     -0.250446   -0.744475   -1.439484
C      0.631155   -0.414753   -0.211130
C     -0.179353   -0.705444    1.087610
C      0.645305   -0.419178    2.362181
C      1.992672   -1.143898    2.345765
C      2.789705   -0.754018    1.089456
C      4.230636   -1.299724    1.145560
C      5.050123   -0.807458   -0.077030
N      6.453926   -1.304155   -0.109300
C      6.616691   -2.760803    0.028603
C      7.172980   -3.028066    1.413152
C      7.927312   -1.767661    1.769901
C      7.321106   -0.670786    0.900455
C      4.341970   -1.126233   -1.406413
C      2.889980   -0.616156   -1.425233
C      2.035832   -1.141118   -0.229492
C      1.860814   -2.684169   -0.377138
H     -2.132603   -0.437610    1.957262
H     -1.522037    1.703009    2.564339
H     -0.576143    2.005029    1.060871
H     -2.365336    2.982120    0.082533
H     -3.122169    4.846011    1.578940
H     -6.577887    3.651541    4.868217
H     -7.235355    1.254672    5.184634
H     -6.130220   -0.530332    3.843079
H     -4.397019    0.060315    2.171521
H     -2.482756   -2.284177   -0.199420
H     -3.873772   -1.509614    0.626730
H     -3.773099   -1.475048   -1.166693
H     -1.207898    1.172873   -1.542338
H     -2.112909   -0.133033   -2.352610
H     -0.536666   -1.815743   -1.450754
H      0.290884   -0.523873   -2.381536
H      0.834575    0.678623   -0.238337
H     -0.426960   -1.788317    1.104639
H      0.072027   -0.751625    3.255499
H      0.835262    0.671695    2.467782
H      2.558849   -0.843296    3.255787
H      1.844487   -2.243182    2.402773
H      2.884301    0.356013    1.110274
H      4.204066   -2.402601    1.218358
H      4.717097   -0.930632    2.074270
H      5.086262    0.306337   -0.020542
H      7.355469   -3.100837   -0.732025
H      5.683769   -3.337528   -0.148544
H      7.837770   -3.918085    1.417597
H      6.340040   -3.187520    2.132312
H      9.004420   -1.891326    1.525389
H      7.821610   -1.529329    2.850810
H      8.135320   -0.121635    0.377647
H      6.777819    0.063364    1.539875
H      4.899020   -0.634105   -2.233449
H      4.358701   -2.213151   -1.621528
H      2.449216   -0.929843   -2.392923
H      2.907141    0.495821   -1.417928
H      2.818832   -3.227949   -0.293989
H      1.441172   -2.942387   -1.373055
H      1.189016   -3.107411    0.393529
