77

C      0.551981   -0.590305   -2.170855
C     -0.339542    0.631100   -2.521024
C      0.576907    1.807866   -2.871033
N      0.452016    2.190483   -4.281242
N      0.534123    1.345073   -5.306623
N      0.454220    1.989816   -6.469522
C      0.327937    3.291336   -6.155693
C      0.228313    4.386463   -7.007725
C      0.131843    5.661226   -6.415979
C      0.141601    5.801691   -5.007354
C      0.246056    4.669339   -4.176188
C      0.332047    3.423917   -4.800968
C      1.948962    1.322601   -2.594254
O      2.929840    2.043096   -2.713504
C      2.037260   -0.107821   -2.168587
C      2.871506   -0.891805   -3.201096
C      2.710765   -0.216676   -0.772140
C      1.806645    0.291009    0.360113
C      0.408160   -0.403516    0.405431
C      0.163565   -1.307136   -0.846600
C     -1.272535   -1.865395   -0.877581
C     -1.598772   -2.615489    0.419196
C     -1.393040   -1.697032    1.638437
C     -1.889056   -2.359613    2.938729
C     -1.821336   -1.361369    4.111494
N     -2.347375   -1.982289    5.355913
C     -1.474513   -3.003595    5.995820
C     -0.833580   -2.497073    7.295753
C     -1.901957   -2.086541    8.323384
C     -3.200456   -1.585143    7.667508
C     -2.928856   -0.982386    6.284553
C     -0.404561   -0.754120    4.267982
C      0.106847   -0.150606    2.946733
C      0.077003   -1.157176    1.751540
C      1.107351   -2.299321    2.012707
H      0.408451   -1.333692   -2.989077
H     -0.997584    0.933136   -1.682424
H     -1.017390    0.376669   -3.365442
H      0.351436    2.666631   -2.203881
H      0.230065    4.264590   -8.082870
H      0.054201    6.539705   -7.042940
H      0.071710    6.786780   -4.565019
H      0.259690    4.775619   -3.100356
H      3.922358   -0.529766   -3.212644
H      2.449873   -0.770393   -4.222900
H      2.876271   -1.974184   -2.949932
H      3.663912    0.356939   -0.759820
H      2.979130   -1.274874   -0.558135
H      1.663742    1.386364    0.228128
H      2.366817    0.176948    1.306604
H     -0.330522    0.425220    0.346866
H      0.831022   -2.192030   -0.789673
H     -1.381738   -2.566922   -1.732857
H     -2.010275   -1.046622   -1.015738
H     -2.661312   -2.940760    0.374952
H     -0.978075   -3.532369    0.500911
H     -2.062648   -0.820255    1.471859
H     -2.949750   -2.668201    2.807821
H     -1.312696   -3.282074    3.148017
H     -2.498167   -0.520413    3.829845
H     -2.097209   -3.893022    6.233624
H     -0.679468   -3.369066    5.314455
H     -0.184827   -1.624449    7.067235
H     -0.187613   -3.291867    7.728584
H     -2.143145   -2.955993    8.974104
H     -1.482949   -1.290261    8.975420
H     -3.682001   -0.825393    8.320131
H     -3.910814   -2.433112    7.554118
H     -3.893088   -0.619063    5.865843
H     -2.257068   -0.103965    6.403241
H     -0.430561    0.055890    5.026303
H      0.328254   -1.500467    4.630064
H     -0.519637    0.736874    2.704844
H      1.134869    0.223483    3.129098
H      1.142944   -3.039522    1.192735
H      2.131361   -1.894326    2.140778
H      0.877782   -2.868496    2.932923
