76

C     -0.970194   -1.209840   -2.371803
C     -1.381976   -2.542067   -1.711019
C     -2.577600   -3.064785   -2.523013
N     -2.213019   -4.129075   -3.472718
C     -1.083744   -4.240490   -4.224375
N     -1.103302   -5.297941   -5.075736
C     -2.305974   -5.851936   -4.845000
C     -2.863818   -6.958149   -5.482071
C     -4.167094   -7.338880   -5.112855
C     -4.874942   -6.608036   -4.132586
C     -4.284295   -5.492682   -3.509708
C     -2.983758   -5.148717   -3.892064
C     -3.069781   -1.861144   -3.248179
O     -4.073869   -1.874263   -3.945323
C     -2.273187   -0.623703   -2.971458
C     -1.994385    0.153244   -4.274429
C     -3.065425    0.233981   -1.950087
C     -2.191237    1.254726   -1.222433
C     -1.045173    0.550360   -0.458931
C     -0.158221   -0.220351   -1.482852
C      1.032854   -0.931627   -0.804823
C      1.851901    0.026551    0.062028
C      0.945446    0.682754    1.115986
C      1.764408    1.474189    2.156305
C      0.833706    2.002349    3.275546
N      1.534592    2.757638    4.348102
C      2.527229    3.747393    3.888027
C      2.984319    4.609578    5.084324
O      2.633454    4.041243    6.336513
C      2.987323    2.673237    6.364590
C      2.121408    1.870407    5.373708
C     -0.308511    2.848778    2.688931
C     -1.100364    2.074371    1.617742
C     -0.204363    1.525019    0.461575
C      0.342424    2.732808   -0.362360
H     -0.295320   -1.483073   -3.214117
H     -1.709674   -2.362556   -0.664607
H     -0.541775   -3.269132   -1.689678
H     -3.359766   -3.425775   -1.821343
H     -0.245425   -3.560898   -4.163961
H     -2.317940   -7.501413   -6.242875
H     -4.634881   -8.189647   -5.592389
H     -5.880383   -6.904423   -3.862768
H     -4.831506   -4.926383   -2.769013
H     -1.303943    1.001838   -4.085854
H     -1.527819   -0.510508   -5.034505
H     -2.938425    0.556011   -4.700991
H     -3.895309    0.767095   -2.464135
H     -3.536338   -0.419858   -1.180623
H     -1.791576    1.981394   -1.960017
H     -2.847053    1.808128   -0.521720
H     -1.511660   -0.205449    0.212071
H      0.274249    0.520595   -2.188515
H      1.696765   -1.369386   -1.582059
H      0.671704   -1.762201   -0.160382
H      2.354032    0.788786   -0.569829
H      2.650242   -0.559100    0.568234
H      0.470743   -0.154524    1.680836
H      2.522109    0.798309    2.606550
H      2.314088    2.296065    1.656592
H      0.341615    1.114049    3.738427
H      2.099673    4.407077    3.104388
H      3.418493    3.233419    3.463779
H      2.496536    5.604879    5.014584
H      4.082618    4.783087    5.039244
H      4.069718    2.542322    6.131678
H      2.830044    2.283337    7.392483
H      1.297356    1.378647    5.935640
H      2.744205    1.075382    4.908983
H     -1.005126    3.129310    3.509014
H      0.077173    3.794835    2.257930
H     -1.876833    2.761437    1.222507
H     -1.632714    1.233236    2.114764
H      1.028507    3.369999    0.225732
H      0.896504    2.417450   -1.265958
H     -0.486812    3.393464   -0.689442
