73

C     -1.236097   -2.420574    2.173960
C     -0.178811   -2.478829    3.294475
C     -0.960557   -2.738550    4.587936
N     -0.960109   -4.158979    4.940721
C     -0.708091   -4.680254    6.155312
N     -0.848700   -6.019914    6.146035
C     -1.209269   -6.267509    4.865171
N     -1.289588   -5.145263    4.124785
C     -2.341417   -2.286276    4.264118
O     -3.231421   -2.229393    5.100060
C     -2.512015   -1.844455    2.843038
C     -3.788727   -2.453712    2.228909
C     -2.550476   -0.292601    2.826177
C     -2.234203    0.290098    1.450185
C     -0.823248   -0.148795    0.986417
C     -0.806910   -1.701036    0.858977
C      0.551211   -2.231550    0.354018
C      0.980251   -1.547946   -0.943877
C      1.045539   -0.025122   -0.735671
C      1.660219    0.686508   -1.953270
C      1.935357    2.186803   -1.659891
N      1.774068    3.086181   -2.833306
C      2.818589    2.875130   -3.858441
C      2.505365    3.631537   -5.169485
N      1.599533    4.778465   -4.956719
C      2.259812    5.868930   -4.216771
C      0.313524    4.377796   -4.333683
C      0.431703    3.130583   -3.436300
C      1.216340    2.744437   -0.400613
C     -0.160761    2.129350   -0.054675
C     -0.337224    0.587023   -0.327935
C     -1.393856    0.416765   -1.465288
H     -1.435156   -3.482198    1.895016
H      0.348056   -1.504397    3.380135
H      0.575810   -3.273947    3.103872
H     -0.540615   -2.128469    5.418052
H     -0.428813   -4.104000    7.029636
H     -1.416696   -7.257125    4.478428
H     -4.696111   -2.045633    2.723365
H     -3.795080   -3.557989    2.355945
H     -3.848224   -2.230413    1.143612
H     -1.813561    0.122061    3.551265
H     -3.551521    0.067858    3.150355
H     -2.306346    1.394862    1.519552
H     -3.010825   -0.048623    0.733196
H     -0.102661    0.126744    1.789732
H     -1.564607   -1.989651    0.099157
H      1.341578   -2.059264    1.116494
H      0.481843   -3.327250    0.177270
H      0.293914   -1.818307   -1.772833
H      1.988785   -1.928946   -1.216851
H      1.755716    0.136167    0.109772
H      2.630464    0.197909   -2.196878
H      1.033192    0.533043   -2.849596
H      3.014489    2.234311   -1.377686
H      2.939091    1.794961   -4.092041
H      3.787473    3.246614   -3.459480
H      2.022086    2.929327   -5.884644
H      3.450583    3.964122   -5.653907
H      3.223181    6.138277   -4.701575
H      1.618945    6.776679   -4.234627
H      2.453350    5.588218   -3.158810
H     -0.120495    5.214333   -3.740514
H     -0.417618    4.164579   -5.142836
H     -0.355652    3.189620   -2.662254
H      0.247158    2.226155   -4.056652
H      1.113223    3.848843   -0.482646
H      1.880515    2.571324    0.477354
H     -0.319196    2.352240    1.022317
H     -0.952866    2.719668   -0.561499
H     -2.349840    0.910493   -1.197078
H     -1.618892   -0.642503   -1.690080
H     -1.072467    0.898657   -2.405629
