71

C      2.755445    0.030641    2.063267
C      2.209021    1.217789    2.879326
C      2.664977    0.967895    4.320550
N      3.895623    1.704202    4.617563
C      3.997834    2.824805    5.350786
N      5.264385    3.282808    5.365816
C      5.910267    2.379747    4.594977
N      5.089127    1.420171    4.126622
C      2.905458   -0.502608    4.362935
O      3.163440   -1.101822    5.396617
C      2.738996   -1.176654    3.035267
C      3.911556   -2.139218    2.756854
C      1.376697   -1.918175    3.042323
C      0.862246   -2.232647    1.637892
C      0.689375   -0.935039    0.813298
C      2.074617   -0.231810    0.686521
C      1.995869    1.063431   -0.149539
C      1.348570    0.821684   -1.513445
C     -0.053132    0.218050   -1.328772
C     -0.825375    0.170312   -2.662472
C     -2.273798   -0.326942   -2.428294
N     -3.090144   -0.398785   -3.668889
C     -2.507852   -1.185655   -4.790411
C     -2.041360   -0.298035   -5.952683
C     -3.201723    0.539668   -6.517443
C     -4.263500    0.880855   -5.457255
C     -3.652568    0.918619   -4.052936
C     -2.298580   -1.676476   -1.687049
C     -1.483797   -1.629749   -0.381213
C     -0.007664   -1.163595   -0.588993
C      0.748700   -2.250120   -1.415123
H      3.818760    0.286428    1.841873
H      2.589137    2.189100    2.492706
H      1.098422    1.231311    2.846648
H      1.860787    1.244711    5.038176
H      3.171679    3.306208    5.857961
H      6.967660    2.426425    4.372379
H      3.850154   -2.545266    1.725906
H      4.885133   -1.613762    2.865122
H      3.897672   -2.989871    3.471400
H      0.604264   -1.301890    3.557177
H      1.462003   -2.865450    3.619159
H      1.568176   -2.929773    1.140085
H     -0.107174   -2.756372    1.754007
H      0.025843   -0.258565    1.397500
H      2.760357   -0.918446    0.146095
H      1.401847    1.834806    0.386637
H      3.019346    1.469154   -0.304802
H      1.268078    1.799259   -2.037504
H      1.991258    0.165148   -2.136844
H     -0.615713    0.930335   -0.679514
H     -0.278338   -0.454386   -3.393880
H     -0.860708    1.196296   -3.085559
H     -2.757525    0.401299   -1.735292
H     -1.666586   -1.830922   -4.465933
H     -3.288633   -1.880143   -5.168830
H     -1.612274   -0.931630   -6.758850
H     -1.236403    0.378757   -5.592908
H     -3.690480   -0.015936   -7.347385
H     -2.788276    1.479203   -6.944793
H     -4.725652    1.863998   -5.692757
H     -5.068909    0.113856   -5.476755
H     -2.874563    1.711852   -4.024630
H     -4.449265    1.197428   -3.329869
H     -3.352544   -1.926362   -1.435944
H     -1.923611   -2.497630   -2.329800
H     -1.998892   -0.945396    0.328996
H     -1.518235   -2.646111    0.062707
H      1.830366   -2.039470   -1.506468
H      0.354772   -2.348624   -2.443803
H      0.637702   -3.249297   -0.945128
