79

C     -1.286330    1.783493   -2.100073
C     -1.094696    0.691176   -3.187107
C     -2.454074    0.038354   -3.458073
N     -2.885958    0.260675   -4.841786
N     -3.177838    1.451513   -5.360887
N     -3.535814    1.342827   -6.639898
C     -3.458993    0.030970   -6.930251
C     -3.739444   -0.615124   -8.132589
C     -3.580624   -2.014799   -8.168843
C     -3.149520   -2.718441   -7.018737
C     -2.879871   -2.031452   -5.817328
C     -3.050502   -0.645047   -5.821772
C     -3.391672    0.689498   -2.511643
O     -4.572943    0.374654   -2.446696
C     -2.780838    1.743455   -1.643649
C     -3.477215    3.091597   -1.918473
C     -2.951197    1.373306   -0.143177
C     -2.070976    0.187233    0.276064
C     -0.556029    0.378847   -0.056026
C     -0.300359    1.672706   -0.902786
C      1.177409    1.818893   -1.337376
C      2.139420    1.707462   -0.143337
C      1.871096    0.399010    0.620130
C      2.905707    0.094370    1.714879
C      2.839011   -1.408397    2.148679
N      3.224663   -1.667660    3.574747
C      3.592555   -3.097515    3.803583
C      5.114224   -3.364073    3.741686
N      5.767307   -2.363155    2.882033
C      7.178407   -2.712277    2.662613
C      5.651888   -1.012780    3.472722
C      4.280028   -0.793063    4.144451
C      1.436836   -2.032851    1.833823
C      0.253905   -1.055058    1.970482
C      0.409703    0.304274    1.186388
C      0.088948    1.463222    2.188109
H     -1.078268    2.761506   -2.592586
H     -0.375256   -0.095570   -2.882584
H     -0.681860    1.154275   -4.112312
H     -2.410794   -1.047386   -3.223272
H     -4.073745   -0.066860   -9.003387
H     -3.786247   -2.558345   -9.082338
H     -3.034370   -3.794658   -7.060307
H     -2.553736   -2.566858   -4.935942
H     -4.545335    3.050355   -1.614953
H     -2.978391    3.905021   -1.346729
H     -3.432687    3.343093   -2.999824
H     -4.015910    1.130062    0.073578
H     -2.694240    2.245607    0.497871
H     -2.243778    0.001890    1.355381
H     -2.443869   -0.720983   -0.247883
H     -0.285953   -0.490227   -0.695428
H     -0.512885    2.561581   -0.272643
H      1.325776    2.809647   -1.821907
H      1.445080    1.039369   -2.082824
H      3.179269    1.699542   -0.537000
H      2.054460    2.593307    0.516773
H      2.004789   -0.395705   -0.150705
H      2.720578    0.780966    2.554816
H      3.924440    0.312903    1.329694
H      3.561542   -1.938763    1.488011
H      3.216123   -3.405112    4.802852
H      3.107267   -3.776890    3.071237
H      5.543791   -3.333364    4.770658
H      5.279656   -4.389016    3.338990
H      7.672114   -1.936633    2.037783
H      7.726351   -2.799695    3.625686
H      7.250865   -3.676785    2.114941
H      6.444992   -0.833980    4.234230
H      5.788213   -0.259035    2.669744
H      4.381884   -1.032959    5.228190
H      4.004399    0.279457    4.140978
H      1.216881   -2.903735    2.484811
H      1.441517   -2.428344    0.793654
H     -0.654012   -1.604030    1.644293
H      0.112383   -0.876182    3.060916
H      0.702032    1.390397    3.109993
H      0.251403    2.473274    1.769458
H     -0.967709    1.419281    2.524104
