54

C      0.137267   -1.029788   -0.127515
C      1.296163   -2.032302   -0.181765
C      2.388021   -1.409442    0.726874
C      1.618662   -0.371490    1.571008
C      0.680530    0.256107    0.531214
C      1.625574    1.075531   -0.459892
C      2.790625    0.289779   -1.106141
C      3.481118   -0.674041   -0.111158
C      4.372832   -1.673606   -0.879652
O      4.311041    0.090466    0.734345
C     -0.564790    1.140036    1.084043
C     -0.199565    2.657183    1.045359
C     -0.931413    0.804239    2.555557
C     -2.153533    1.590600    3.089910
C     -3.172205    2.059204    2.059356
O     -4.079118    2.774653    2.461658
C     -3.138064    1.689027    0.572369
C     -3.190645    2.967542   -0.302914
C     -4.437340    0.887998    0.284622
C     -1.882001    0.797919    0.259459
C     -1.584689    0.509111   -1.240680
C     -0.639602   -0.718601   -1.424357
H     -0.580198   -1.512353    0.574161
H      1.618877   -2.225993   -1.223051
H      0.978927   -3.011807    0.241306
H      2.850361   -2.179045    1.384276
H      1.066234   -0.916915    2.366672
H      2.267932    0.382889    2.065481
H      1.047850    1.540753   -1.280909
H      2.109765    1.904291    0.097530
H      2.408035   -0.259023   -1.991876
H      3.538863    1.011115   -1.503573
H      3.806722   -2.239298   -1.646734
H      5.192023   -1.128607   -1.395764
H      4.831140   -2.401692   -0.176919
H      4.710124   -0.523569    1.405770
H     -0.099920    3.028806    0.005896
H      0.749795    2.834362    1.593391
H     -0.936451    3.308777    1.548579
H     -0.066848    1.014479    3.223084
H     -1.152079   -0.281599    2.651781
H     -1.779770    2.489152    3.628245
H     -2.677794    0.966987    3.845812
H     -4.107510    3.554619   -0.079120
H     -3.225804    2.708390   -1.381837
H     -2.333749    3.642377   -0.142822
H     -5.338894    1.498951    0.509071
H     -4.489967   -0.027215    0.913820
H     -4.504775    0.584917   -0.779952
H     -2.221510   -0.192836    0.632491
H     -2.522510    0.302528   -1.794702
H     -1.139623    1.410713   -1.708281
H      0.056308   -0.527144   -2.267501
H     -1.243521   -1.612317   -1.693651
