37

C      0.957231    1.163454   -0.779372
C      2.256398    1.995594   -0.637234
C      3.251507    1.350176    0.327647
C      2.575780    1.061969    1.632599
O      3.085697    1.447597    2.675349
C      1.279002    0.271211    1.626641
C      0.750852    0.061634    3.064346
C      0.241061    0.920504    0.622131
C     -0.263920    2.277763    1.185690
C     -1.013127   -0.021842    0.425044
O     -2.062236    0.637393   -0.245491
C     -0.627405   -1.263917   -0.328382
C      0.374948   -1.297004   -1.253958
O      0.450226   -2.482887   -1.812857
C     -0.491949   -3.241784   -1.288726
C     -1.213962   -2.510281   -0.358008
C     -2.350058   -2.994409    0.481950
C      1.217696   -0.136872   -1.534512
O      2.085478   -0.201752   -2.446436
H      0.277764    1.759384   -1.426335
H      2.010522    3.018241   -0.279372
H      2.741195    2.127241   -1.628886
H      4.113732    2.035771    0.479133
H      3.637306    0.400316   -0.100282
H      1.544444   -0.740486    1.251040
H      1.544939   -0.396471    3.692362
H     -0.102665   -0.642417    3.091270
H      0.456406    1.022691    3.533950
H      0.571462    2.907758    1.554758
H     -0.806997    2.853620    0.406313
H     -0.967000    2.119187    2.030710
H     -1.419834   -0.327473    1.407098
H     -1.790558    0.781520   -1.188866
H     -0.662754   -4.275582   -1.558521
H     -3.165474   -2.241150    0.481746
H     -1.998651   -3.153162    1.522635
H     -2.746087   -3.951074    0.080999
