37

C      0.506161    3.116476   -0.726289
C      0.381933    1.886137   -1.654610
C     -0.587115    2.267218   -2.808343
C     -0.860611    1.122450   -3.788050
C     -1.301879   -0.158749   -3.070057
C     -0.246970   -0.588267   -2.028401
O      0.960351   -0.785893   -2.739329
C     -0.625751   -1.918691   -1.371153
O     -1.404873   -2.742026   -1.922312
C      0.049640   -2.257828   -0.114028
C      0.831888   -1.352690    0.548875
C      1.337595   -2.015934    1.646266
C      2.232268   -1.466361    2.709104
C      0.806404   -3.297258    1.582165
O      0.039590   -3.410064    0.514342
C      0.978641    0.039381    0.088955
O      1.912392    0.755996    0.535067
C     -0.055415    0.552693   -0.928559
C     -1.369133    0.787911   -0.122230
H     -0.482340    3.414655   -0.318381
H      0.904916    3.978388   -1.303105
H      1.199353    2.952968    0.117457
H      1.386261    1.717340   -2.103577
H     -0.150895    3.112784   -3.384493
H     -1.556171    2.629635   -2.403899
H      0.053639    0.926045   -4.389620
H     -1.659045    1.433938   -4.495751
H     -1.416493   -0.956537   -3.836713
H     -2.298505   -0.013825   -2.602676
H      1.653699   -1.138442   -2.123944
H      2.448134   -2.242398    3.473361
H      1.738492   -0.602891    3.201698
H      3.188787   -1.133233    2.255390
H      0.981992   -4.094800    2.291984
H     -1.177474    1.438712    0.757428
H     -1.785920   -0.162414    0.270390
H     -2.162156    1.268301   -0.725793
