47

C     -1.302502    5.363979    0.216261
O     -0.256426    4.796080   -0.565076
C      0.397673    3.593683   -0.258415
C      0.081667    2.831703    0.883736
C      0.756570    1.627724    1.144445
C      0.370984    0.784473    2.332529
C     -0.888136   -0.049485    2.054967
C     -0.653408   -1.080072    0.965070
C     -1.046620   -0.881269   -0.313644
C     -2.022851    0.174737   -0.750775
C     -2.491984   -0.248425   -2.141133
C     -1.684949   -1.455723   -2.469432
O     -1.783864   -2.026734   -3.544496
C     -0.681986   -1.832621   -1.421178
C      0.736296   -1.507757   -1.940046
C     -0.835279   -3.293591   -0.891313
C     -0.548203   -4.383300   -1.939203
C      0.061202   -3.516426    0.350337
C      0.010660   -2.361776    1.319023
O      0.542293   -2.503027    2.453039
C      1.750245    1.187408    0.256924
C      2.068812    1.943237   -0.872650
C      1.395636    3.139844   -1.128518
H     -0.934823    5.591452    1.239133
H     -1.638016    6.308474   -0.258782
H     -2.164181    4.665052    0.265872
H     -0.693927    3.156991    1.564247
H      1.211436    0.118051    2.625123
H      0.175899    1.448209    3.202860
H     -1.177030   -0.574844    2.990708
H     -1.732270    0.630751    1.822332
H     -2.899995    0.209259   -0.069371
H     -1.525495    1.166359   -0.786424
H     -3.572535   -0.508867   -2.134088
H     -2.299964    0.555121   -2.884443
H      0.984933   -2.122840   -2.829383
H      0.801726   -0.440323   -2.244686
H      1.504944   -1.680588   -1.159372
H     -1.892789   -3.429737   -0.566295
H     -0.688026   -5.386481   -1.482653
H      0.494152   -4.321277   -2.313947
H     -1.251373   -4.314447   -2.792167
H      1.118281   -3.668254    0.042752
H     -0.268763   -4.439070    0.875753
H      2.270134    0.254184    0.434276
H      2.833556    1.596746   -1.555671
H      1.646615    3.715752   -2.010214
