47

C      4.294789   -1.219781    0.131944
O      3.044488   -0.975663   -0.503645
C      2.726067    0.200148   -1.199014
C      1.449216    0.313740   -1.760977
C      1.071785    1.473432   -2.457364
C     -0.330912    1.615351   -2.990379
C     -1.225808    2.423617   -2.038473
C     -1.318379    1.789528   -0.662367
C     -2.103754    0.715746   -0.424235
C     -3.183191    0.214276   -1.343508
C     -4.064620   -0.697756   -0.484981
C     -3.388456   -0.749631    0.841710
O     -3.831016   -1.390505    1.783173
C     -2.104518    0.012919    0.900570
C     -0.937646   -0.996078    0.966819
C     -2.035197    1.055432    2.058139
C     -3.295422    1.942196    2.149609
C     -0.771808    1.938226    1.896070
C     -0.539352    2.372771    0.466754
O      0.343209    3.243491    0.240376
C      1.988687    2.526825   -2.589059
C      3.267556    2.417648   -2.038535
C      3.638618    1.262467   -1.345109
H      4.269911   -2.221359    0.607908
H      5.113989   -1.202326   -0.617566
H      4.478720   -0.456963    0.917777
H      0.744525   -0.500244   -1.642379
H     -0.298958    2.129606   -3.975472
H     -0.777238    0.614348   -3.171025
H     -2.234246    2.526556   -2.488958
H     -0.830713    3.459467   -1.962525
H     -3.798024    1.055032   -1.729370
H     -2.736642   -0.351318   -2.188180
H     -4.127113   -1.716785   -0.923573
H     -5.083974   -0.269674   -0.370542
H     -0.937681   -1.523018    1.944940
H     -1.028896   -1.756469    0.160133
H      0.043368   -0.494283    0.838432
H     -1.953047    0.510834    3.025310
H     -3.451767    2.516840    1.212411
H     -4.196730    1.325671    2.347016
H     -3.196554    2.660407    2.991114
H     -0.841626    2.836654    2.547186
H      0.120304    1.372119    2.238693
H      1.708818    3.434772   -3.108808
H      3.970811    3.233790   -2.142877
H      4.633192    1.206907   -0.924320
