25

C      2.560107    0.369077    1.011411
C      1.442436    1.359486    1.160325
O      1.716827    2.529035    1.387255
C     -0.006074    0.937982    1.033073
C     -0.744802    1.208371    2.351400
C     -0.664035    1.669803   -0.155471
C     -2.039002    1.131403   -0.461007
C     -2.192042   -0.074025   -1.161521
C     -3.469398   -0.574032   -1.420388
C     -4.585202    0.134788   -0.971458
N     -4.422915    1.298475   -0.287595
C     -3.189339    1.806668   -0.023601
H      3.156782    0.340730    1.947079
H      3.217422    0.676343    0.171264
H      2.176985   -0.651844    0.805024
H     -0.052281   -0.156491    0.839777
H     -1.774459    0.795193    2.310425
H     -0.214724    0.713920    3.193603
H     -0.803176    2.299259    2.555180
H     -0.715129    2.762254    0.050229
H     -0.028919    1.544964   -1.060628
H     -1.324110   -0.623880   -1.504037
H     -3.593502   -1.502780   -1.962063
H     -5.580898   -0.241466   -1.164530
H     -3.105590    2.732964    0.530019
