105

C     -2.468770   -0.205428    0.832911
C     -1.313095   -0.075539    1.818630
C     -1.875993    0.614021    3.080668
C     -3.142517    1.375860    2.659551
C     -2.916224    2.906074    2.526787
C     -3.297241    3.694933    3.792096
C     -2.387831    3.387080    4.989511
C     -2.690920    4.315009    6.169765
C     -1.807551    3.988838    7.333233
O     -2.318034    3.584616    8.414904
O     -0.421216    4.129093    7.206368
C      0.484991    3.792564    8.249437
C     -3.480171    0.764498    1.343754
O     -4.527280    1.002723    0.756884
C     -0.214959    0.744839    1.113405
C     -0.732795    1.114820   -0.282266
O     -1.206773    2.448887   -0.235274
Si    -0.600757    3.422377   -1.537863
C     -1.029562    2.631998   -3.183467
C      1.260167    3.579093   -1.390413
C     -1.416209    5.134608   -1.395171
C     -1.140051    5.716292    0.003446
C     -2.934500    4.988820   -1.594472
C     -0.844823    6.081690   -2.465375
C     -1.922532    0.175091   -0.549297
C     -1.592908   -1.079312   -1.346501
C     -0.423471   -1.736080   -1.267936
C     -0.215417   -3.084010   -1.916753
C      1.264890   -3.496800   -1.758460
C      1.616046   -3.924331   -0.319154
C      3.126735   -3.860662   -0.037347
C      3.596040   -2.425163    0.260379
C      5.078041   -2.396680    0.627984
O     -1.087943   -4.004158   -1.290511
Si    -1.524792   -5.398744   -2.250717
C     -0.095596   -6.584796   -2.491932
C     -2.729555   -6.322274   -1.154286
C     -2.397316   -5.039594   -3.928303
C     -1.357017   -4.916811   -5.063352
C     -3.340766   -6.211121   -4.263382
C     -3.228207   -3.745484   -3.840013
H     -2.911435   -1.224296    0.854250
H     -0.916665   -1.082439    2.076969
H     -2.167228   -0.173921    3.811323
H     -1.122180    1.255474    3.584117
H     -3.969977    1.159623    3.372495
H     -1.861171    3.124594    2.259483
H     -3.548873    3.306238    1.698783
H     -4.355631    3.480935    4.061006
H     -3.223105    4.780665    3.553115
H     -1.328726    3.519032    4.684350
H     -2.543767    2.335168    5.311776
H     -3.758611    4.208284    6.468599
H     -2.513352    5.370486    5.875148
H      0.355865    2.723299    8.527266
H      0.307966    4.440052    9.139433
H      1.523505    3.949127    7.889778
H      0.706379    0.130897    1.028035
H      0.077559    1.653320    1.684563
H      0.082470    0.947332   -1.024594
H     -2.113922    2.410048   -3.211071
H     -0.466170    1.686075   -3.302527
H     -0.770988    3.320541   -4.012809
H      1.641767    4.313669   -2.130369
H      1.520782    3.913427   -0.364692
H      1.739390    2.597939   -1.589706
H     -1.603531    6.720925    0.110933
H     -0.049768    5.827214    0.179103
H     -1.555372    5.060993    0.797178
H     -3.161648    4.633615   -2.617546
H     -3.360972    4.263622   -0.871688
H     -3.442594    5.965111   -1.449984
H     -1.340409    7.076994   -2.411021
H      0.244726    6.236117   -2.317116
H     -1.008386    5.673347   -3.483783
H     -2.695409    0.717325   -1.135858
H     -2.411458   -1.536335   -1.889952
H      0.395005   -1.311094   -0.699654
H     -0.431514   -2.958618   -2.991627
H      1.900364   -2.644118   -2.083267
H      1.506680   -4.322071   -2.452619
H      1.073991   -3.306303    0.431702
H      1.274991   -4.971033   -0.172063
H      3.691667   -4.278838   -0.902616
H      3.343914   -4.498506    0.850168
H      3.010766   -2.002148    1.110343
H      3.444947   -1.777197   -0.630955
H      5.388411   -1.347369    0.830051
H      5.263056   -3.002033    1.540438
H      5.692569   -2.797730   -0.209771
H      0.619606   -6.207684   -3.245220
H     -0.486876   -7.556539   -2.846662
H      0.427675   -6.747244   -1.531527
H     -3.676617   -5.744132   -1.076844
H     -2.288464   -6.439013   -0.138496
H     -2.939218   -7.329070   -1.574104
H     -0.807212   -5.872755   -5.196845
H     -0.621439   -4.114809   -4.860143
H     -1.861518   -4.685105   -6.025367
H     -2.787830   -7.175690   -4.241534
H     -3.775863   -6.080063   -5.278052
H     -4.183297   -6.261902   -3.537638
H     -2.576626   -2.851349   -3.779030
H     -3.899931   -3.770526   -2.953370
H     -3.858530   -3.627756   -4.746914
