54

C     -4.796803    3.581653   -1.340557
C     -3.582255    2.665745   -1.479383
C     -2.722224    2.617903   -0.202756
C     -3.348765    1.815127    0.958755
C     -3.320536    0.290223    0.748214
C     -1.907093   -0.314649    0.908463
C     -1.579279   -1.361770   -0.168079
C     -1.421222   -0.738812   -1.535337
C     -0.387122   -0.016352   -1.967116
C      0.835488    0.254723   -1.173027
C      1.860570    0.970300   -1.656210
C      3.110445    1.244970   -0.910000
O      4.044874    1.829608   -1.521084
C      3.338057    0.857689    0.531209
C      4.143242   -0.444059    0.660294
C      3.329934   -1.683678    0.263682
C      4.147148   -2.965060    0.462587
C      3.341202   -4.198898    0.065175
C     -0.613003    0.494172   -3.367243
C     -1.990949   -0.042117   -3.778675
C     -2.420824   -0.800398   -2.582177
O     -3.512196   -1.422952   -2.495768
H     -5.501689    3.194024   -0.577131
H     -4.478513    4.609134   -1.063755
H     -5.334210    3.629624   -2.312265
H     -3.916715    1.652174   -1.776007
H     -2.951926    3.055228   -2.309056
H     -2.533756    3.657090    0.144390
H     -1.729864    2.194546   -0.463136
H     -2.801494    2.056310    1.896734
H     -4.397935    2.137563    1.119532
H     -3.770271    0.037489   -0.230777
H     -3.984789   -0.176329    1.507748
H     -1.843348   -0.807706    1.902790
H     -1.124319    0.471173    0.911992
H     -2.380512   -2.131462   -0.190461
H     -0.642218   -1.891893    0.105633
H      0.896784   -0.164119   -0.182800
H      1.803438    1.368727   -2.661085
H      2.390612    0.795526    1.104039
H      3.923479    1.670552    1.013669
H      5.061599   -0.378870    0.035841
H      4.463025   -0.548598    1.720397
H      2.412183   -1.737920    0.888989
H      3.033326   -1.607345   -0.804934
H      5.069056   -2.921940   -0.156686
H      4.444056   -3.059125    1.530096
H      3.951782   -5.111254    0.229891
H      2.420341   -4.272485    0.681515
H      3.061007   -4.146966   -1.008377
H     -0.610862    1.605633   -3.372323
H      0.174031    0.107737   -4.049349
H     -1.912996   -0.718303   -4.656526
H     -2.700100    0.787634   -3.986123
