55

O      3.069676   -0.362306    3.901979
C      1.873897    0.008931    4.060205
C      1.175404    0.727710    2.932102
N      1.817308    0.439797    1.631629
C      1.533774    1.522589    0.657357
C      1.622982    1.043017   -0.793561
N      0.660681   -0.042604   -1.004410
C      0.037172   -0.205336   -2.295663
O      0.635178    0.219240   -3.323488
C     -1.314603   -0.888478   -2.437142
C     -2.358339   -0.316739   -1.493232
C     -3.315502   -1.174236   -0.921208
C     -4.295838   -0.670169   -0.061643
C     -4.339491    0.695335    0.227581
C     -3.406100    1.560828   -0.346619
C     -2.424395    1.062701   -1.207840
C     -1.845725   -0.865137   -3.861395
C     -2.119474   -2.072072   -4.531438
C     -2.631805   -2.060040   -5.832284
C     -2.879004   -0.846364   -6.477529
C     -2.615504    0.358517   -5.822850
C     -2.105117    0.352783   -4.521521
C      0.364335   -0.954535    0.109359
C      1.497976   -0.928798    1.144440
C      1.206119   -0.224975    5.366650
C      0.028921    0.456473    5.726632
C     -0.570988    0.218235    6.964462
C      0.008222   -0.698585    7.840665
N      1.147830   -1.348897    7.488204
C      1.753584   -1.135014    6.289557
H      0.100749    0.439508    2.895076
H      1.231937    1.815743    3.160550
H      0.511703    1.940948    0.812368
H      2.265258    2.344743    0.809996
H      1.391970    1.901651   -1.461733
H      2.649689    0.682487   -1.018475
H     -1.137602   -1.948028   -2.150084
H     -3.300740   -2.235050   -1.138849
H     -5.023720   -1.339067    0.378881
H     -5.099251    1.083402    0.893585
H     -3.444028    2.619652   -0.125561
H     -1.712721    1.753110   -1.641507
H     -1.941696   -3.024170   -4.047306
H     -2.840896   -2.993171   -6.339123
H     -3.276056   -0.839670   -7.484376
H     -2.809004    1.298876   -6.323193
H     -1.908224    1.297494   -4.032456
H     -0.587438   -0.655448    0.596786
H      0.265721   -1.995531   -0.265650
H      2.412039   -1.349303    0.672338
H      1.239433   -1.617051    1.980129
H     -0.423714    1.183653    5.065826
H     -1.476056    0.742575    7.243341
H     -0.446588   -0.892458    8.802960
H      2.657917   -1.681333    6.056961
