55

O     -1.550774   -4.323554    1.231945
C     -0.432894   -3.742573    1.163861
C     -0.100809   -2.926026   -0.061045
N     -1.313249   -2.313561   -0.646380
C     -1.052178   -1.779901   -2.004217
C     -0.329944   -0.420840   -1.967984
N     -0.942016    0.480881   -0.987357
C     -0.300623    1.744153   -0.698981
O      0.389357    2.300816   -1.595914
C     -0.395710    2.383291    0.676254
C      0.030243    1.414391    1.770551
C      1.128583    0.546308    1.598223
C      1.503749   -0.333766    2.616307
C      0.787411   -0.367298    3.813135
C     -0.295826    0.494127    4.001181
C     -0.668152    1.387188    2.990813
C      0.342338    3.715188    0.749169
C     -0.318929    4.883313    0.316531
C      0.329743    6.120251    0.345978
C      1.650193    6.209409    0.790965
C      2.328351    5.058205    1.198458
C      1.687600    3.815585    1.165172
C     -2.176268    0.048200   -0.322719
C     -1.964231   -1.343109    0.280789
C      0.535950   -3.900436    2.273193
C      1.920455   -3.804351    2.054372
C      2.810657   -3.953181    3.119259
C      2.312606   -4.203089    4.397567
N      0.972545   -4.299950    4.597481
C      0.083301   -4.158262    3.578067
H      0.636697   -2.134451    0.193693
H      0.371843   -3.618045   -0.790904
H     -2.022227   -1.661217   -2.533163
H     -0.462249   -2.500933   -2.610957
H     -0.371075    0.042867   -2.975178
H      0.735532   -0.584225   -1.702161
H     -1.468821    2.621441    0.836902
H      1.699656    0.554567    0.678805
H      2.353080   -0.988423    2.476790
H      1.075462   -1.056216    4.597111
H     -0.845917    0.472085    4.932389
H     -1.507225    2.051540    3.157843
H     -1.337865    4.832987   -0.042137
H     -0.195468    7.012604    0.029375
H      2.149047    7.168925    0.819278
H      3.352351    5.129569    1.545153
H      2.245452    2.945146    1.482809
H     -2.997653    0.011030   -1.069728
H     -2.501736    0.741991    0.473697
H     -1.378013   -1.212511    1.216996
H     -2.951931   -1.750275    0.580142
H      2.318178   -3.626354    1.060551
H      3.877854   -3.883461    2.951529
H      2.992031   -4.320791    5.230990
H     -0.975292   -4.236770    3.789669
