26

O      2.395030   -0.641882    1.622527
C      1.235075   -0.388913    1.195850
C      0.070567   -0.715573    2.054459
C     -1.086975    0.084372    2.040653
C     -2.171242   -0.224070    2.867720
C     -2.108786   -1.327887    3.725905
C     -3.225384   -1.644174    4.577546
N     -4.123066   -1.898448    5.262200
C     -0.954894   -2.119326    3.758498
C      0.130571   -1.812186    2.932261
C      1.085083    0.224420   -0.146284
C      2.076857    1.091638   -0.637218
C      1.954134    1.662269   -1.907869
C      0.844902    1.364393   -2.707732
C      0.719849    1.951462   -4.016102
N      0.619300    2.423432   -5.067946
C     -0.139017    0.488787   -2.234433
C     -0.018128   -0.082472   -0.964056
H     -1.148330    0.956605    1.402177
H     -3.055372    0.401683    2.841999
H     -0.893719   -2.973227    4.422605
H      1.013400   -2.438514    2.970429
H      2.941426    1.336865   -0.032643
H      2.724302    2.334861   -2.266182
H     -0.996522    0.242862   -2.849349
H     -0.779252   -0.775316   -0.628106
