38

C     -2.330081   -1.807417    0.631316
C     -3.107851   -0.621157    0.124862
C     -2.526734   -0.477704   -1.307959
C     -1.178194   -1.292057   -1.362753
C     -1.250970   -2.506155   -2.310308
C     -0.034978   -0.394925   -1.719790
O      0.220942   -0.059236   -2.867450
C      0.761449    0.054597   -0.547875
C      0.972174    1.544268   -0.558967
O      2.123905    2.012089   -0.345490
O     -0.113589    2.399389   -0.776568
C      0.014840    3.815455   -0.779749
C     -0.087991   -0.403251    0.649800
C      0.781127   -0.566302    1.914311
C     -0.916284   -1.651937    0.111428
C     -0.334707   -2.993372    0.611846
C     -1.032782   -3.096524    1.958393
C     -2.122101   -2.311325    2.005482
H     -2.828593   -2.673498    0.121450
H     -4.198164   -0.838094    0.096542
H     -2.943623    0.286890    0.740326
H     -3.257693   -0.875276   -2.046032
H     -2.376104    0.600993   -1.535297
H     -1.463450   -2.167863   -3.346916
H     -0.285105   -3.055402   -2.315026
H     -2.058779   -3.203650   -2.006751
H      1.739917   -0.475605   -0.570456
H     -0.978036    4.270665   -0.973119
H      0.717986    4.131446   -1.579203
H      0.385538    4.165437    0.206918
H     -0.793278    0.415473    0.897654
H      0.164185   -0.869074    2.783696
H      1.610416   -1.286582    1.766727
H      1.240545    0.411898    2.171615
H     -0.653423   -3.848398   -0.021776
H      0.769525   -3.008649    0.692016
H     -0.663961   -3.669610    2.802205
H     -2.783221   -2.190082    2.856567
