41

C     -0.640855   -3.241538    0.480654
C     -1.596403   -2.410471   -0.386922
C     -2.921616   -2.124981    0.398693
C     -3.038946   -2.822905    1.798217
C     -1.703416   -2.916133    2.527246
O     -1.629547   -3.377728    3.654708
C     -0.482562   -2.424042    1.814977
C     -0.421832   -0.942436    1.749986
C     -0.375104    0.259591    1.685226
Si    -0.311132    2.066332    1.566068
C     -1.380927    2.811343    2.901294
C     -0.943853    2.595054   -0.108295
C      1.450728    2.642996    1.783113
C      0.709106   -3.100430    1.133089
C      1.664940   -2.254720    0.341143
O      2.525748   -1.562146    0.948900
O      1.612302   -2.262766   -1.057632
C      2.361007   -1.364544   -1.872651
C      1.746316    0.029470   -1.830948
H     -0.988095   -4.297134    0.594359
H     -1.121525   -1.466422   -0.732046
H     -1.832739   -3.001027   -1.297620
H     -3.004282   -1.026959    0.552294
H     -3.792999   -2.420236   -0.224612
H     -3.764320   -2.263590    2.426842
H     -3.430089   -3.852951    1.655082
H     -1.345938    3.917615    2.828070
H     -1.004732    2.494235    3.895410
H     -2.426871    2.464681    2.773707
H     -0.301016    2.162662   -0.901522
H     -1.984904    2.235104   -0.239894
H     -0.922824    3.701888   -0.178391
H      2.086656    2.201818    0.988983
H      1.824446    2.321873    2.777142
H      1.487737    3.749488    1.713676
H      1.091468   -4.018120    1.628355
H      3.420995   -1.329614   -1.539636
H      2.339387   -1.733858   -2.919467
H      0.690395   -0.012439   -2.171999
H      2.314611    0.710221   -2.498652
H      1.777640    0.433467   -0.798169
