41

C     -1.756396   -2.254645   -2.443011
C     -0.936765   -3.080188   -1.442838
C      0.478639   -3.390470   -2.040246
C      0.707206   -2.911946   -3.516791
C     -0.008673   -1.603385   -3.832724
O      0.109442   -1.064120   -4.921280
C     -0.864451   -1.001374   -2.762766
C     -0.057772   -0.380168   -1.683799
C      0.630247    0.119602   -0.829704
Si     1.707246    0.860132    0.427412
C      3.427912    1.028116   -0.275741
C      1.068802    2.551960    0.894132
C      1.768835   -0.243099    1.932618
C     -2.373789   -0.883903   -2.540488
C     -2.921838   -0.425954   -1.219763
O     -3.774222   -1.139091   -0.623140
O     -2.549901    0.820927   -0.705030
C     -3.050817    1.345683    0.523241
C     -2.488651    0.578896    1.715771
H     -2.081574   -2.861732   -3.322729
H     -1.474666   -4.035766   -1.265454
H     -0.857492   -2.569238   -0.458394
H      1.241872   -2.901513   -1.396319
H      0.673873   -4.483026   -1.982332
H      0.327870   -3.692370   -4.210731
H      1.796443   -2.790026   -3.698192
H      3.810379    0.026167   -0.559604
H      4.096501    1.477085    0.487130
H      3.398742    1.680634   -1.172406
H      1.042161    3.197087   -0.007856
H      1.742519    3.003508    1.650844
H      0.047305    2.467494    1.315368
H      2.442937    0.205658    2.690665
H      0.752979   -0.352250    2.362069
H      2.153975   -1.241762    1.641006
H     -2.987518   -0.719583   -3.451464
H     -2.739061    2.408316    0.603833
H     -4.161722    1.308938    0.532255
H     -2.881951   -0.458251    1.734838
H     -1.383239    0.542556    1.655591
H     -2.782473    1.086337    2.658477
