84

C      2.103032   -3.438430   -2.580001
O      0.935847   -4.209898   -2.728764
C      0.170209   -3.928564   -1.568206
C      0.717652   -2.661795   -0.960184
C      0.459168   -2.149591    0.261235
C     -0.615040   -2.541634    1.206610
C     -1.813706   -3.020543    0.832918
C     -3.045961   -2.820765    1.691087
C     -3.530692   -4.172148    2.218967
C     -4.176899   -2.103305    0.887998
O     -5.049851   -1.471758    1.785830
C     -3.620240   -1.083899   -0.104672
C     -3.807934   -1.321261   -1.585246
C     -2.859462   -0.064769    0.350393
C     -1.956238    0.744108   -0.554866
C     -1.131021    1.787288    0.219577
C     -0.034466    2.412150   -0.681817
C      1.374728    1.918365   -0.336201
C      1.650709    1.995558    1.187836
C      0.363153    2.002685    2.051385
C      0.705017    1.384587    3.427172
C     -0.452749    1.520937    4.413707
C     -0.920961    2.980527    4.481519
C     -2.145341    3.070373    5.407535
C     -1.216867    3.480215    3.048479
C     -1.659545    4.967917    3.020957
C     -3.149331    5.121467    2.697470
O     -0.064344    3.354648    2.218910
O     -0.617746    1.200485    1.412368
O      1.560959    0.588407   -0.835994
C      2.823003   -0.024664   -0.900161
O      3.838457    0.588716   -0.463868
C      3.012781   -1.409104   -1.484310
C      3.971256   -1.300310   -2.682001
C      3.913241   -2.116844   -3.760767
C      4.846222   -1.902788   -4.920241
C      2.867909   -3.167185   -3.834636
O      2.694459   -3.860478   -4.873592
C      1.697599   -2.110805   -1.943854
O      1.025953   -1.265881   -2.862039
H      2.798197   -4.001650   -1.905609
H     -0.881572   -3.798433   -1.899261
H      0.257099   -4.772915   -0.852061
H      1.064021   -1.330084    0.616387
H     -0.504221   -2.172922    2.221757
H     -2.003260   -3.335085   -0.180209
H     -2.790985   -2.184574    2.572294
H     -2.742114   -4.633598    2.852225
H     -4.441189   -4.032428    2.843241
H     -3.768637   -4.855693    1.372794
H     -4.747194   -2.881023    0.329953
H     -5.831993   -1.160378    1.257011
H     -4.225387   -0.407689   -2.060541
H     -2.835906   -1.577689   -2.058619
H     -4.509994   -2.157854   -1.779820
H     -2.792276    0.091119    1.425619
H     -1.267671    0.049189   -1.080797
H     -2.571256    1.263899   -1.316818
H     -1.851060    2.593455    0.476444
H     -0.055861    3.516970   -0.546973
H     -0.245121    2.227686   -1.759514
H      2.094514    2.586203   -0.864716
H      2.246131    2.919450    1.410011
H      2.285455    1.131211    1.480326
H      1.593157    1.895611    3.852911
H      0.949276    0.306259    3.306264
H     -0.115138    1.185982    5.418947
H     -1.285407    0.857426    4.084626
H     -0.104443    3.600597    4.914498
H     -1.898347    2.648451    6.410286
H     -3.000770    2.502943    4.982318
H     -2.453648    4.124572    5.560195
H     -2.044138    2.856048    2.653285
H     -1.441153    5.480906    3.982709
H     -1.091095    5.516971    2.235272
H     -3.444942    6.198184    2.797024
H     -3.342342    4.791973    1.654735
H     -3.769784    4.530256    3.394590
H      3.502987   -2.040587   -0.711955
H      4.747718   -0.544272   -2.644855
H      5.791829   -1.410131   -4.596845
H      4.348489   -1.267694   -5.683001
H      5.108815   -2.878860   -5.380814
H      0.302524   -1.776259   -3.315611
