84

C      5.047180    0.239055   -2.087504
O      5.762625   -0.352970   -1.024689
C      5.135288    0.153570    0.146171
C      3.812194    0.709370   -0.279021
C      2.976338    1.436477    0.469373
C      3.027654    1.426011    1.935216
C      2.596424    0.343035    2.590463
C      2.447402    0.297278    4.091911
C      2.303216   -1.160964    4.552480
C      1.275423    1.171631    4.620801
O      1.652115    2.526388    4.585552
C     -0.047946    0.952001    3.877983
C     -1.028241   -0.062681    4.415971
C     -0.353009    1.710774    2.798008
C     -1.672226    1.687139    2.051273
C     -1.724467    0.703857    0.860446
C     -0.423147    0.755822    0.038182
C     -0.544273   -0.082316   -1.236476
C     -1.806129    0.308302   -2.003469
C     -3.037707    0.223184   -1.067126
C     -4.251893    0.763148   -1.852302
C     -5.541397    0.659463   -1.039499
C     -5.600513   -0.608021   -0.158558
C     -5.548135   -0.262127    1.340054
C     -4.509609   -1.652313   -0.528726
C     -4.893062   -2.483853   -1.773482
C     -3.820689   -3.512884   -2.129223
O     -3.185836   -1.135968   -0.644439
O     -2.842180    1.072913    0.059167
O      0.636126   -0.005104   -2.046660
C      1.317013    1.169028   -2.402915
O      0.698188    2.262330   -2.506982
C      2.800084    1.127139   -2.692023
C      3.036425    0.592908   -4.102531
C      4.123557   -0.147091   -4.435868
C      4.310663   -0.616584   -5.851005
C      5.166331   -0.445108   -3.413966
O      6.154997   -1.181276   -3.676178
C      3.589614    0.255912   -1.671472
O      3.105202   -1.075846   -1.673731
H      5.433235    1.278762   -2.233004
H      4.991202   -0.665984    0.881846
H      5.766166    0.954703    0.588635
H      2.129157    1.918915    0.014037
H      3.259329    2.339807    2.465480
H      2.325744   -0.538803    2.018243
H      3.392510    0.675943    4.542314
H      2.235652   -1.214532    5.659698
H      1.397145   -1.628805    4.112188
H      3.192016   -1.748137    4.236374
H      1.123212    0.901364    5.691977
H      1.004487    3.021011    5.153409
H     -1.280295   -0.801340    3.626949
H     -0.602914   -0.616285    5.278581
H     -1.952708    0.444982    4.761508
H      0.371749    2.439221    2.445324
H     -2.518579    1.487298    2.741313
H     -1.838205    2.714434    1.658555
H     -1.860720   -0.321298    1.272168
H      0.410700    0.343375    0.641029
H     -0.210811    1.815448   -0.213610
H     -0.646277   -1.147525   -0.932560
H     -1.699614    1.342632   -2.396300
H     -1.936006   -0.380696   -2.866926
H     -4.362060    0.224306   -2.815398
H     -4.085033    1.831688   -2.113948
H     -5.647387    1.577738   -0.419986
H     -6.399835    0.659108   -1.746615
H     -6.596841   -1.079110   -0.317272
H     -6.346081    0.467931    1.593880
H     -5.721861   -1.174537    1.949854
H     -4.567809    0.166684    1.624915
H     -4.478637   -2.388991    0.304576
H     -5.840498   -3.028387   -1.566628
H     -5.076474   -1.840747   -2.654702
H     -4.174330   -4.140067   -2.974397
H     -3.613561   -4.172943   -1.260373
H     -2.882618   -3.004713   -2.438969
H      3.194431    2.167361   -2.652902
H      2.320508    0.857762   -4.872131
H      4.991125    0.080031   -6.383501
H      3.342438   -0.662255   -6.394052
H      4.751978   -1.635213   -5.863272
H      2.454838   -1.188056   -0.931095
