61

C     -0.888862   -0.613059    0.679516
C     -2.085814   -1.056521    1.514079
C     -1.546088   -2.300116    2.248428
C     -2.084711   -2.401391    3.646362
O     -1.670721   -1.620243    4.546647
O     -3.090492   -3.331782    3.921552
C     -3.681251   -3.457155    5.209574
C     -4.720753   -4.565520    5.187683
C     -0.053346   -2.116984    2.215807
O      0.726994   -2.905780    2.724711
C      0.355193   -0.833082    1.555128
C      0.528257    0.228055    2.680481
C      1.577041   -0.870709    0.584034
C      2.920567   -1.130771    1.283637
C      1.652692    0.456281   -0.232530
C      0.321389    0.864049   -0.923929
O      0.449135    2.197571   -1.376323
Si    -0.122546    2.437772   -3.004058
C     -1.683298    1.474978   -3.386962
C     -0.579268    4.246627   -3.143514
C      1.255952    2.029474   -4.257394
C      0.880869    2.595263   -5.639041
C      1.443913    0.504195   -4.371735
C      2.573821    2.666637   -3.783328
C     -0.899578    0.766248    0.026478
H     -0.867730   -1.344860   -0.168166
H     -2.386616   -0.247331    2.216140
H     -2.953415   -1.316573    0.868932
H     -1.803790   -3.218859    1.676994
H     -2.897784   -3.703188    5.959019
H     -4.169712   -2.498557    5.492654
H     -5.518331   -4.325866    4.453635
H     -4.240576   -5.526713    4.907693
H     -5.176470   -4.669746    6.192521
H     -0.408747    0.368419    3.256078
H      1.307798   -0.098991    3.400072
H      0.822127    1.221558    2.294347
H      1.429751   -1.703779   -0.139923
H      2.898520   -2.080420    1.852959
H      3.725251   -1.220281    0.520991
H      3.188091   -0.300621    1.968581
H      2.428369    0.346687   -1.018206
H      1.995896    1.286196    0.416963
H      0.171995    0.128678   -1.744965
H     -1.516002    0.384008   -3.294467
H     -2.002079    1.700436   -4.424118
H     -2.490488    1.780519   -2.696592
H     -1.028728    4.446384   -4.137437
H      0.320452    4.878413   -3.008078
H     -1.319243    4.487335   -2.357128
H      0.808433    3.704092   -5.608721
H      1.654957    2.329410   -6.392449
H     -0.091200    2.183961   -5.984928
H      1.788805    0.071319   -3.412042
H      2.213603    0.264322   -5.137302
H      0.496154    0.008176   -4.672681
H      3.395488    2.430828   -4.493053
H      2.859898    2.279969   -2.782850
H      2.482154    3.770853   -3.718840
H     -0.884571    1.577512    0.784415
H     -1.836263    0.877103   -0.559383
