31

C      0.313716    4.382004   -1.487011
C      1.156208    3.544144   -0.570286
O      2.362172    3.487346   -0.764164
C      0.542152    2.773331    0.575910
C      1.141554    3.218608    1.914689
C      0.725771    1.293962    0.355968
O      1.840061    0.751763    0.592260
N     -0.346679    0.506316   -0.172618
O     -0.179971   -0.821821   -0.410185
C     -0.684687   -1.498307    0.715163
C     -0.491149   -2.974499    0.524579
C      0.741383   -3.570417    0.839911
C      0.936871   -4.938906    0.627656
C     -0.091820   -5.718345    0.091759
C     -1.315705   -5.129549   -0.238791
C     -1.514572   -3.760974   -0.030415
H      0.651305    5.438182   -1.437505
H      0.422004    4.015240   -2.529142
H     -0.759542    4.339838   -1.207871
H     -0.547858    2.985516    0.626644
H      2.239524    3.048730    1.937741
H      0.674779    2.651607    2.748422
H      0.945688    4.300296    2.076264
H     -1.241595    0.965863   -0.456522
H     -1.768167   -1.274590    0.847808
H     -0.150733   -1.177432    1.639272
H      1.549629   -2.975354    1.247321
H      1.886579   -5.394377    0.876758
H      0.061618   -6.777047   -0.073268
H     -2.108481   -5.732805   -0.661921
H     -2.464300   -3.315994   -0.300931
