49

C      0.242835   -3.567789   -0.154890
O      0.336841   -2.278663   -0.723598
C      0.474524   -1.294703    0.288606
C      1.959235   -1.048853    0.631697
C      2.001731   -0.244826    1.958086
C      1.195715    1.032449    1.851131
O      1.522360    2.006883    2.511204
C     -0.050850    1.089566    0.988171
S     -1.469555    0.733700    2.104439
C     -1.822511    2.448297    2.500048
C     -2.655782    3.201669    1.663254
C     -2.934238    4.537078    1.971297
C     -2.385981    5.119695    3.118402
C     -1.560623    4.366390    3.959306
C     -1.280686    3.030968    3.652487
C      0.060047    0.096602   -0.238079
C     -1.222125    0.103259   -1.139157
C     -2.464916   -0.502622   -0.535004
C     -2.794523   -1.785600   -0.706119
C      1.281286    0.525962   -1.114906
C      2.517169   -0.250168   -0.590472
C      3.055147   -1.225437   -1.670256
C      3.681173    0.714604   -0.245242
H      0.197377   -4.312074   -0.975856
H     -0.687844   -3.672630    0.444729
H      1.129954   -3.810077    0.468431
H     -0.126600   -1.557089    1.192960
H      2.512889   -2.000128    0.784232
H      3.051251   -0.022297    2.245355
H      1.576108   -0.861493    2.778946
H     -0.154919    2.118798    0.578090
H     -3.080550    2.756376    0.772642
H     -3.574130    5.119890    1.321595
H     -2.601982    6.153157    3.356377
H     -1.138842    4.816823    4.848436
H     -0.644145    2.451791    4.309146
H     -1.455341    1.157400   -1.403586
H     -1.022289   -0.414704   -2.103414
H     -3.164112    0.144029   -0.014535
H     -3.716771   -2.168591   -0.281835
H     -2.174629   -2.454012   -1.292162
H      1.112910    0.291208   -2.189529
H      1.431716    1.627962   -1.077769
H      2.276191   -1.911012   -2.053856
H      3.444924   -0.661376   -2.545155
H      3.884294   -1.840031   -1.258169
H      3.360801    1.544919    0.414935
H      4.507857    0.161238    0.249756
H      4.081932    1.185767   -1.168653
