51

C     -0.054415    3.142341    0.178622
C     -0.334475    3.592737    1.633740
C      0.803629    4.520697    2.056093
O      1.273972    4.169228    3.331105
C      1.858160    4.308031    1.031956
O      2.966125    4.817534    1.119211
C      1.443691    3.453637   -0.124670
C      1.584049    4.258882   -1.432306
C      2.328798    2.174718   -0.206665
C      1.930203    1.121376    0.835215
C      0.450890    0.653935    0.685654
C     -0.410079    1.661244   -0.121854
C     -1.894185    1.342626    0.084066
C     -2.185545   -0.116863   -0.157087
C     -1.261898   -1.103115   -0.035135
C     -1.701011   -2.541506   -0.211048
C     -1.193961   -3.392707    0.958821
O     -1.528593   -4.739533    0.749717
C      0.327696   -3.270856    1.093106
C      0.764579   -1.805659    1.278285
C      0.240464   -0.825311    0.173552
C      1.000980   -1.105788   -1.164390
O      0.397004   -0.461612   -2.252466
H     -0.700768    3.773524   -0.474819
H     -1.308316    4.126617    1.693773
H     -0.390986    2.732747    2.330477
H      0.464297    5.582221    2.032647
H      1.814215    4.936077    3.656419
H      1.029632    5.220497   -1.366377
H      1.176406    3.678113   -2.287559
H      2.652348    4.485801   -1.639073
H      2.243159    1.714855   -1.215731
H      3.400823    2.438081   -0.070045
H      2.070137    1.567200    1.844842
H      2.644315    0.276587    0.786358
H      0.040613    0.665690    1.719782
H     -0.209643    1.537746   -1.203278
H     -2.207763    1.590875    1.120020
H     -2.505642    1.952373   -0.615422
H     -3.225734   -0.376549   -0.332630
H     -1.299849   -2.934179   -1.169980
H     -2.809195   -2.627033   -0.256523
H     -1.662402   -3.032756    1.905888
H     -2.498512   -4.827363    0.943546
H      0.656420   -3.853001    1.981597
H      0.828258   -3.723722    0.211972
H      0.399043   -1.481566    2.277861
H      1.873857   -1.784567    1.321648
H      2.065068   -0.798763   -1.092282
H      1.010921   -2.193196   -1.383087
H      0.966704   -0.652421   -3.042508
