29

O      2.041978   -2.409750   -3.334406
C      1.824101   -1.402847   -2.610716
C      1.134425   -0.179580   -2.990434
O      0.627729    0.053955   -4.119510
N      1.096721    0.728715   -1.885350
C      0.204032    1.879985   -1.758298
C     -1.161779    1.434276   -1.308592
C     -2.100828    0.976444   -2.248179
C     -3.356051    0.525451   -1.828379
C     -3.680747    0.522485   -0.469287
C     -2.750308    0.970054    0.472293
C     -1.494017    1.422019    0.056666
C      1.751514    0.026298   -0.819394
C      1.968774    0.478562    0.485189
C      2.638013   -0.370280    1.383980
C      3.080237   -1.644356    0.971761
C      2.860125   -2.082258   -0.344658
C      2.195655   -1.223817   -1.218014
H      0.632441    2.612166   -1.041264
H      0.129546    2.401727   -2.736972
H     -1.862087    0.969247   -3.304095
H     -4.076318    0.176071   -2.556813
H     -4.652379    0.172189   -0.145772
H     -3.001916    0.965340    1.524981
H     -0.784990    1.764178    0.798932
H      1.643090    1.459254    0.802236
H      2.817653   -0.042080    2.399484
H      3.594145   -2.288364    1.673437
H      3.196472   -3.058325   -0.669345
