29

O     -2.754058    0.331194   -2.136727
C     -1.773804   -0.230450   -1.581107
C     -0.443074   -0.427076   -2.134923
O     -0.059853   -0.042954   -3.271445
N      0.386988   -1.112881   -1.192427
C      1.847630   -1.173449   -1.228724
C      2.436614    0.095195   -0.671969
C      2.594228    1.222373   -1.495905
C      3.104852    2.413594   -0.971056
C      3.455889    2.490384    0.379289
C      3.296247    1.376019    1.207124
C      2.786108    0.182837    0.686202
C     -0.453638   -1.306087   -0.045945
C     -0.112139   -1.924354    1.160209
C     -1.090806   -2.014819    2.165332
C     -2.384889   -1.495808    1.953836
C     -2.714921   -0.882914    0.733752
C     -1.729345   -0.805402   -0.247999
H      2.203006   -2.054972   -0.653932
H      2.187091   -1.321111   -2.276831
H      2.323004    1.179056   -2.543076
H      3.226273    3.278021   -1.610966
H      3.850092    3.413412    0.784333
H      3.566381    1.437113    2.253437
H      2.667908   -0.670196    1.341269
H      0.874456   -2.335078    1.322317
H     -0.849829   -2.489079    3.107798
H     -3.129263   -1.571681    2.735728
H     -3.705690   -0.482303    0.563032
