70

C     -5.899586    0.735060    0.816947
C     -4.843575   -0.383497    0.846024
C     -5.282001   -1.452260    1.863479
C     -3.420788    0.156924    1.188757
C     -2.353961   -0.950546    1.154698
C     -1.082936   -0.333363    0.548799
O     -0.322226   -1.305410   -0.145248
Si     0.894881   -2.066058    0.845268
C      2.188811   -0.838454    1.429361
C      0.143838   -2.871365    2.360970
C      1.723740   -3.386543   -0.242867
C      0.689840   -4.472373   -0.588906
C      2.912117   -4.022696    0.498895
C      2.221471   -2.725918   -1.541341
C     -1.587267    0.770504   -0.421398
C     -1.886308    0.230362   -1.841454
C     -0.629593    1.999685   -0.463489
C      0.735194    1.706932   -1.129535
C      1.773940    2.861833   -1.044499
C      2.214244    3.115539    0.412832
C      1.170299    4.150413   -1.599214
C      1.345303    4.541473   -2.870185
C      2.172042    3.725932   -3.820346
C      3.406872    3.172315   -3.109664
C      3.008573    2.446238   -1.849614
O      3.697358    1.510160   -1.467811
C     -2.896820    1.151614    0.201194
O     -3.453210    2.216186   -0.029573
H     -5.763275    1.382251   -0.072417
H     -5.844482    1.352607    1.738794
H     -6.921725    0.306127    0.737573
H     -4.822230   -0.856133   -0.161356
H     -4.598535   -2.325843    1.846383
H     -5.296565   -1.029675    2.891147
H     -6.298312   -1.828318    1.616757
H     -3.427586    0.633673    2.194001
H     -2.173082   -1.330877    2.180463
H     -2.678149   -1.799182    0.511861
H     -0.516221    0.155217    1.375501
H      2.896949   -1.350825    2.111623
H      1.709533   -0.005854    1.981123
H      2.751546   -0.434063    0.565441
H      0.892825   -3.527288    2.847174
H     -0.740156   -3.473178    2.068018
H     -0.156814   -2.087908    3.085041
H      0.336826   -4.989353    0.328375
H      1.135492   -5.235656   -1.262593
H     -0.190264   -4.029037   -1.102980
H      3.386109   -4.807069   -0.129926
H      3.685199   -3.261465    0.734411
H      2.583093   -4.498151    1.446285
H      1.378435   -2.262927   -2.097498
H      2.972296   -1.937693   -1.324225
H      2.698623   -3.479452   -2.204397
H     -0.978378   -0.195735   -2.316490
H     -2.650811   -0.575916   -1.805207
H     -2.271197    1.045100   -2.492176
H     -1.123686    2.820040   -1.028295
H     -0.477207    2.363856    0.573681
H      0.559241    1.486868   -2.204074
H      1.171739    0.794706   -0.679070
H      2.561757    2.175837    0.891647
H      3.049477    3.849241    0.439114
H      1.388998    3.534109    1.024911
H      0.548525    4.764899   -0.953599
H      0.902630    5.472905   -3.210742
H      1.556209    2.883764   -4.204500
H      2.481848    4.354980   -4.682017
H      4.097975    4.002003   -2.847115
H      3.936340    2.478346   -3.797545
