51

C     -0.866654   -0.878359    1.452010
C     -1.362823    0.420915    0.768163
C     -1.023584    0.560367   -0.737843
C     -1.964354   -0.300593   -1.643460
C     -2.957121    0.653641   -2.326452
C     -2.400721    1.995545   -2.059643
C     -2.879531    3.202991   -2.572497
C     -2.259634    4.404613   -2.194937
O     -2.754277    5.604312   -2.727133
C     -2.224923    6.892502   -2.431335
C     -1.168265    4.367592   -1.294833
C     -0.710379    3.143888   -0.785999
C     -1.339027    1.957807   -1.189343
C      0.466582    0.243784   -0.982103
C      0.827512   -1.156068   -0.480905
C      0.547699   -1.365276    1.039432
C      1.643069   -0.660448    1.875212
C      0.503110   -2.900311    1.314368
O      0.827279   -3.180104    2.680210
C      1.119762   -4.462806    3.155947
C      1.405245   -4.659479    4.605507
O      1.106486   -5.457825    2.381344
C     -0.946882   -3.325501    1.032094
C     -1.724095   -2.077060    1.233355
O     -2.943346   -2.058961    1.306210
H     -0.890516   -0.695525    2.550397
H     -0.885979    1.264925    1.314399
H     -2.458324    0.536339    0.924677
H     -1.387060   -0.822924   -2.437864
H     -2.519704   -1.074975   -1.080234
H     -3.017048    0.461304   -3.419547
H     -3.964357    0.568671   -1.864341
H     -3.722223    3.211515   -3.252330
H     -2.312675    7.100877   -1.344088
H     -1.161876    6.950221   -2.747314
H     -2.803006    7.658487   -2.987604
H     -0.674088    5.276282   -0.979734
H      0.114454    3.125803   -0.086003
H      1.113243    0.990414   -0.476176
H      0.695912    0.309420   -2.068833
H      1.902508   -1.344783   -0.695108
H      0.261781   -1.897035   -1.085748
H      1.469041   -0.792226    2.964231
H      2.644006   -1.075790    1.630512
H      1.652618    0.430952    1.678113
H      1.213354   -3.447200    0.652612
H      0.478726   -4.982300    5.124003
H      2.189664   -5.434194    4.737969
H      1.761262   -3.708328    5.053957
H     -1.291086   -4.119026    1.729443
H     -1.063346   -3.672362   -0.016824
