48

C     -0.055180    3.384527   -0.727430
C     -0.114632    3.195925    0.799434
C     -1.493635    2.645565    1.202003
C      1.072790    2.362230    1.391945
C      2.434569    3.049844    1.108314
C      3.151953    2.726986    2.348930
O      4.337936    2.941589    2.548049
C      2.232119    2.015547    3.275666
C      2.395927    2.483201    4.724327
C      2.395326    0.486705    3.133198
C      2.197288    0.050688    1.662754
C      1.085053    0.858347    0.934988
O      1.274568    0.764375   -0.477067
C      0.957443   -0.372669   -1.226038
O      0.496677   -1.402280   -0.661032
C      1.220370   -0.356477   -2.676468
C      0.650554   -1.168330   -3.580660
C     -0.473840   -2.089427   -3.312326
C     -0.433510   -3.392311   -3.832207
C     -1.506570   -4.266123   -3.629634
C     -2.635346   -3.838287   -2.925422
C     -2.697125   -2.532755   -2.430927
C     -1.626485   -1.656041   -2.631575
O      0.947345    2.349083    2.805098
H     -0.341138    2.455693   -1.262444
H     -0.770297    4.178465   -1.031623
H      0.955905    3.699515   -1.057380
H     -0.046280    4.213160    1.247324
H     -1.710934    1.686815    0.686316
H     -1.553042    2.489973    2.299557
H     -2.285231    3.372331    0.919774
H      2.953926    2.632010    0.219338
H      2.345129    4.154276    1.021478
H      3.409359    2.229311    5.102606
H      2.252222    3.583072    4.791956
H      1.640010    1.990320    5.372134
H      1.632704   -0.021440    3.763523
H      3.401023    0.167508    3.484757
H      1.961060   -1.034528    1.629396
H      3.159163    0.190001    1.121768
H      0.109787    0.402322    1.210676
H      1.965925    0.345663   -3.028635
H      1.032776   -1.139694   -4.594061
H      0.432513   -3.734485   -4.385765
H     -1.464551   -5.273892   -4.022210
H     -3.465696   -4.515178   -2.771221
H     -3.578106   -2.197320   -1.899114
H     -1.700633   -0.639459   -2.265282
