35

C      3.689353    1.829162   -1.031055
O      2.538962    1.380129   -1.739697
C      1.831174    0.207505   -1.437397
C      2.214362   -0.658400   -0.395591
C      1.468341   -1.808957   -0.125599
C      0.322244   -2.105867   -0.880741
C     -0.502254   -3.300209   -0.565242
C     -1.051163   -3.490380    0.654687
C     -0.956542   -2.541131    1.786573
O     -0.748573   -3.007798    2.938430
C     -1.139163   -1.079622    1.622871
C     -2.020969   -0.566498    0.654084
C     -2.159863    0.814417    0.486557
C     -1.431868    1.694370    1.290885
C     -0.569178    1.194909    2.269614
C     -0.426789   -0.185455    2.440929
C     -0.772121   -4.313918   -1.653135
F      0.097011   -4.142775   -2.717158
F     -0.607720   -5.598699   -1.164541
F     -2.069826   -4.164811   -2.106590
C     -0.043958   -1.254392   -1.934427
C      0.703354   -0.105026   -2.204753
H      4.039618    2.783069   -1.475682
H      3.435556    2.005753    0.035631
H      4.504221    1.079019   -1.111348
H      3.083459   -0.449978    0.213047
H      1.776019   -2.462336    0.681565
H     -1.579608   -4.415675    0.852227
H     -2.596217   -1.233067    0.023734
H     -2.831778    1.202222   -0.268072
H     -1.538774    2.763143    1.158100
H     -0.007218    1.877695    2.893632
H      0.256771   -0.555278    3.195195
H     -0.924284   -1.465827   -2.528776
H      0.399523    0.551741   -3.009965
