17

O      2.055894    1.649238   -0.544315
C      0.839201    1.692322   -0.875502
C      0.326164    2.888191   -1.634252
Br     1.708364    4.209992   -1.984445
C     -0.057261    0.561583   -0.507848
C     -1.423915    0.564599   -0.852847
C     -2.253982   -0.506392   -0.499808
Cl    -3.952158   -0.452800   -0.954640
C     -1.725758   -1.598639    0.205728
Cl    -2.735223   -2.962584    0.667357
C     -0.372172   -1.610120    0.551935
C      0.456120   -0.541745    0.199824
H     -0.477337    3.381156   -1.047947
H     -0.085551    2.557736   -2.610818
H     -1.857367    1.393300   -1.396204
H      0.041835   -2.449554    1.096208
H      1.500430   -0.581708    0.483196
