17

O      0.406096    0.905151    3.361994
C      0.265043    0.189856    2.332699
C      1.037711   -1.095262    2.256940
Br     2.644830   -0.844703    1.204587
C     -0.627419    0.654048    1.233826
C     -1.429725    1.796870    1.418141
C     -2.275079    2.252776    0.399652
Cl    -3.257253    3.683560    0.684984
C     -2.327357    1.568219   -0.824206
Cl    -3.375029    2.108460   -2.129171
C     -1.533092    0.435171   -1.018102
C     -0.689725   -0.020237   -0.001509
H      0.415904   -1.904863    1.822033
H      1.337252   -1.417196    3.277075
H     -1.405605    2.337653    2.356244
H     -1.566359   -0.095471   -1.961317
H     -0.084825   -0.894523   -0.196275
