36

C      2.938979   -1.611441    0.248742
C      1.461524   -1.377579    0.136766
C      0.559664   -2.338148    0.313731
C     -0.831585   -1.869026    0.046681
C     -0.683580   -0.337375   -0.103247
O     -1.285402    0.094520   -1.318398
C     -0.341486    0.397659   -2.274830
O     -0.643779    0.771326   -3.437832
C      1.043413    0.229781   -1.793211
C      0.829393   -0.088549   -0.295066
C      1.132300    1.083470    0.584804
O      2.255701    1.549615    0.710079
C     -0.073937    1.672557    1.244917
C     -0.436921    3.022281    0.596019
C      0.121504    1.790177    2.712340
O      0.784502    2.700064    3.277410
O     -0.485281    0.771760    3.406291
C     -1.036113   -0.181092    2.517546
C     -1.138801    0.538112    1.125438
C     -2.591172    1.048112    0.953809
H      3.501453   -0.701882   -0.046682
H      3.239548   -2.444364   -0.421099
H      3.196862   -1.871243    1.296651
H      0.812823   -3.363197    0.565761
H     -1.180386   -2.328032   -0.903685
H     -1.530465   -2.169645    0.853919
H      1.521277   -0.614335   -2.336497
H      1.628040    1.161367   -1.955395
H     -0.670669    2.885826   -0.481363
H     -1.310960    3.484948    1.101479
H      0.416366    3.729525    0.677552
H     -2.015450   -0.540890    2.900633
H     -0.333881   -1.037592    2.495866
H     -2.888364    1.678601    1.819379
H     -3.289001    0.185744    0.892814
H     -2.713870    1.648813    0.028941
