50

C      2.518437   -1.951566    3.853752
C      1.948851   -1.223764    2.638964
C      1.087817   -0.029033    3.063788
C      0.515922    0.677156    1.850328
C      1.154381    1.689072    1.205280
C      2.463455    2.277837    1.710375
C      2.250196    3.347367    2.796755
C      1.625275    4.630573    2.250604
C      0.566435    2.246612   -0.046053
O      1.050759    3.292227   -0.557842
C     -0.583465    1.566325   -0.747941
C     -1.822039    2.467182   -0.755258
N     -0.894887    0.282149   -0.103123
C     -1.377237   -0.836214   -0.877337
O     -1.596610   -0.696718   -2.110844
O     -1.597737   -2.074907   -0.251000
C     -2.002627   -3.295701   -0.886960
C     -0.952556   -3.739269   -1.923331
C     -2.099116   -4.366531    0.212030
C     -3.386111   -3.134679   -1.546375
C     -0.834165    0.210811    1.361020
H      3.172786   -1.270808    4.438115
H      1.694860   -2.317562    4.504120
H      3.119159   -2.824271    3.518639
H      2.788443   -0.882524    1.997545
H      1.332129   -1.937620    2.050840
H      1.671179    0.657883    3.707840
H      0.252334   -0.397414    3.698058
H      3.042639    2.718653    0.869312
H      3.119747    1.478329    2.112019
H      3.238978    3.599539    3.239024
H      1.605925    2.954940    3.610697
H      1.583415    5.394179    3.056506
H      2.232936    5.033668    1.412960
H      0.588040    4.438427    1.900576
H     -0.267025    1.392245   -1.800499
H     -2.668729    1.944520   -1.251210
H     -1.611540    3.402331   -1.317147
H     -2.124609    2.733773    0.282166
H      0.053770   -3.791133   -1.452995
H     -0.900605   -3.032314   -2.777008
H     -1.205516   -4.743315   -2.328537
H     -1.115291   -4.496055    0.712141
H     -2.839441   -4.059195    0.983948
H     -2.413883   -5.345243   -0.208795
H     -3.345240   -2.447319   -2.414107
H     -3.760878   -4.114988   -1.912934
H     -4.114913   -2.728551   -0.813217
H     -1.037864   -0.817920    1.727965
H     -1.617100    0.870993    1.791999
