50

C     -1.128003   -0.553629   -3.826055
C     -0.402350    0.723117   -3.407935
C     -0.919705    1.295176   -2.078225
C     -0.600370    0.401046   -0.889124
C     -1.532757   -0.358445   -0.261664
C     -2.995686   -0.383301   -0.661416
C     -3.771833    0.724989    0.060217
C     -5.238777    0.733860   -0.358405
C     -1.142749   -1.085509    0.960825
O     -1.843529   -2.041261    1.391869
C      0.035616   -0.617314    1.756839
C     -0.387961    0.509082    2.703481
N      1.115092   -0.155096    0.871276
C      2.469411   -0.141423    1.366525
O      3.412144    0.213625    0.607241
O      2.727846   -0.524634    2.693090
C      4.006980   -0.541026    3.343001
C      4.961610   -1.523565    2.638282
C      3.775714   -1.020851    4.783865
C      4.613663    0.874553    3.381485
C      0.867906    0.282032   -0.514897
H     -2.209315   -0.350684   -3.974858
H     -0.706168   -0.920202   -4.785429
H     -0.998146   -1.347519   -3.060788
H     -0.550229    1.486057   -4.202626
H      0.688526    0.523516   -3.342398
H     -1.995665    1.541267   -2.168483
H     -0.421429    2.274508   -1.912513
H     -3.120597   -0.298610   -1.758523
H     -3.441312   -1.366312   -0.396708
H     -3.711685    0.565973    1.159224
H     -3.326575    1.716613   -0.170482
H     -5.326610    0.920751   -1.449952
H     -5.716186   -0.238564   -0.112436
H     -5.775306    1.540431    0.184259
H      0.396779   -1.478760    2.362427
H     -1.200168    0.159841    3.376476
H     -0.750183    1.386820    2.125831
H      0.470655    0.826865    3.331411
H      4.483023   -2.521914    2.544742
H      5.904202   -1.634858    3.216695
H      5.230891   -1.169247    1.622588
H      3.325449   -2.036952    4.783801
H      4.731121   -1.057048    5.351086
H      3.077127   -0.335288    5.310440
H      4.880781    1.228597    2.365068
H      5.539468    0.886225    3.996433
H      3.886711    1.590774    3.820989
H      1.352592    1.271042   -0.667134
H      1.348144   -0.443544   -1.205497
