70

C     -1.709801    1.296552    0.797544
C     -1.221890   -0.024261    0.247807
C     -0.017151   -0.478472    1.188644
C      1.253457   -0.909513    0.385959
C      1.798454    0.188077   -0.558367
C      1.031839   -2.225111   -0.393651
O      2.239568   -2.592998   -1.058621
C      2.328393   -3.566840   -2.063100
C      1.407299   -4.624781   -2.176046
C      1.522496   -5.550224   -3.218111
C      2.565264   -5.439685   -4.148258
O      2.653661   -6.352680   -5.198972
C      3.799522   -7.189114   -5.375788
C      3.477470   -4.379873   -4.038914
C      3.362168   -3.454007   -3.002473
C      0.373969    0.533920    2.376343
C     -0.828608    1.265751    3.101308
N     -0.677720    2.718402    3.253962
C      0.419298    3.322088    3.950687
O      0.512078    4.580081    4.011106
O      1.387858    2.515198    4.561759
C      2.488635    3.047715    5.283021
C     -1.872039    3.486931    2.850105
C     -2.831044    2.479720    2.159008
C     -4.288230    2.493118    2.491411
O     -4.719752    2.625495    3.622445
C     -5.160737    2.173595    1.317817
C     -4.194412    1.891752    0.154675
C     -2.793773    2.360863    0.611275
O     -2.319468    3.529817   -0.080405
C     -2.986792    4.762538   -0.144204
C     -2.376888    5.888226   -0.905019
O     -4.073647    4.948969    0.464708
C     -2.089926    1.139846    2.276806
C     -2.966866   -0.081466    2.678305
H     -0.796302    1.928788    0.655267
H     -0.923570    0.126157   -0.808734
H     -2.033629   -0.781378    0.245018
H     -0.371497   -1.395751    1.713911
H      2.053924   -1.119552    1.133230
H      2.854107   -0.036934   -0.824567
H      1.782639    1.189667   -0.086094
H      1.223117    0.240588   -1.504313
H      0.224859   -2.093469   -1.149624
H      0.737890   -3.033342    0.306606
H      0.605345   -4.738234   -1.457475
H      0.820455   -6.372606   -3.297761
H      3.768365   -7.647356   -6.386635
H      4.738947   -6.604602   -5.276442
H      3.778098   -8.002103   -4.615852
H      4.256515   -4.252150   -4.783462
H      4.055874   -2.625743   -2.938765
H      1.089791    1.303182    2.015855
H      0.937360   -0.045347    3.152465
H     -0.979993    0.821764    4.114575
H      3.097447    3.696345    4.621036
H      3.122502    2.214945    5.651940
H      2.121087    3.635842    6.152643
H     -1.576455    4.321660    2.178226
H     -2.347607    3.921360    3.755318
H     -5.818677    3.040235    1.090750
H     -5.782999    1.283127    1.531092
H     -4.179996    0.808364   -0.081804
H     -4.518763    2.428829   -0.762682
H     -1.670407    5.495309   -1.666156
H     -1.825882    6.546088   -0.201726
H     -3.169156    6.478748   -1.414411
H     -3.409006    0.082691    3.681934
H     -2.374760   -1.016350    2.731618
H     -3.792154   -0.247080    1.960492
