41

C      2.075152    0.135536   -0.044413
C      0.835574   -0.735740    0.081815
O     -0.246047    0.070341    0.484183
P     -1.711076   -0.798330    0.329488
O     -2.850444    0.180007    0.518013
O     -1.826419   -1.500344   -1.224007
C     -1.917801   -0.468551   -2.177899
C     -1.871482   -1.076289   -3.570910
C     -1.911131   -2.133147    1.584482
C     -3.317920   -2.735276    1.422326
C     -1.760978   -1.598808    3.036682
C     -0.378831   -1.083304    3.379742
O      0.514475   -1.941644    3.619583
C     -0.022858    0.366119    3.460532
C      1.296645    0.734008    3.798366
C      1.671271    2.078855    3.862623
C      0.738303    3.079333    3.592481
C     -0.571486    2.736703    3.257382
C     -0.953959    1.393400    3.191525
C     -0.937744   -3.208458    1.318123
N     -0.177033   -4.055470    1.108835
H      2.943846   -0.487277   -0.345443
H      1.910245    0.920255   -0.812968
H      2.300445    0.621110    0.928763
H      1.045454   -1.508636    0.848446
H      0.659843   -1.218863   -0.904631
H     -2.881423    0.077590   -2.070397
H     -1.069043    0.247238   -2.088166
H     -2.716797   -1.784180   -3.705411
H     -1.948896   -0.273398   -4.334194
H     -0.913788   -1.620073   -3.715744
H     -3.466306   -3.125127    0.391403
H     -4.098816   -1.969626    1.619781
H     -3.472789   -3.575384    2.134473
H     -1.978381   -2.431767    3.742384
H     -2.544475   -0.847613    3.251588
H      2.046782   -0.018078    4.007819
H      2.688375    2.344785    4.120196
H      1.030722    4.120300    3.640731
H     -1.293254    3.514467    3.043191
H     -1.973048    1.183167    2.911281
