30

C     -3.549046   -4.163985    2.475524
O     -3.408013   -3.769135    1.116216
C     -2.914767   -2.515120    0.743534
O     -2.599251   -1.667077    1.622758
C     -2.809605   -2.177860   -0.684840
O     -3.412150   -2.896366   -1.526196
C     -2.062924   -0.998043   -1.159888
C     -2.446225   -0.164932   -2.206859
N     -1.532642    0.813654   -2.392682
C     -0.564444    0.596419   -1.486390
C      0.608751    1.329900   -1.320337
C      1.532781    0.897456   -0.344259
C      2.791496    1.682541   -0.098232
C      2.830464    2.832269    0.914443
F      2.496774    2.350675    2.166952
F      1.911388    3.797694    0.546583
F      4.087555    3.413674    0.979485
N      3.535766    1.855786   -1.161327
N      3.891479    0.976932   -0.177318
C      1.242746   -0.246606    0.441160
C      0.052117   -0.968305    0.246235
C     -0.845323   -0.505166   -0.717707
H     -4.251282   -3.481093    2.998985
H     -3.954190   -5.195857    2.515311
H     -2.560326   -4.145547    2.981170
H     -3.348832   -0.265824   -2.795698
H     -1.567634    1.572875   -3.108841
H      0.804088    2.202430   -1.931465
H      1.944147   -0.579975    1.195869
H     -0.143980   -1.862085    0.821991
