30

C     -3.856939    1.739563   -2.657686
O     -2.727582    2.236759   -1.949988
C     -1.523336    1.531858   -1.863051
O     -1.390453    0.422187   -2.448538
C     -0.397668    2.117869   -1.118245
O     -0.437373    3.340551   -0.817126
C      0.796715    1.332510   -0.754764
C      2.107217    1.801333   -0.760669
N      2.959065    0.832365   -0.357761
C      2.198493   -0.240033   -0.079446
C      2.629507   -1.467496    0.418484
C      1.657969   -2.443081    0.700301
C      0.282352   -2.176518    0.484543
C     -0.751632   -3.204276    0.852304
C     -1.361457   -3.257017    2.257405
F     -1.986836   -2.054351    2.530569
F     -0.356572   -3.459952    3.185321
F     -2.290107   -4.280081    2.373390
N     -0.584051   -4.368207    0.276835
N     -1.573319   -3.512762   -0.119133
C     -0.120049   -0.912680   -0.000699
C      0.870405    0.025060   -0.300907
H     -4.686957    2.471365   -2.580177
H     -3.601689    1.596839   -3.729119
H     -4.185872    0.774022   -2.218203
H      2.420173    2.796637   -1.048839
H      3.996055    0.911973   -0.263769
H      3.679382   -1.660667    0.597213
H      1.970794   -3.399935    1.099318
H     -1.169126   -0.674596   -0.114519
