39

C     -3.200716    2.419498   -3.358168
N     -3.610051    1.680985   -2.163007
C     -3.331028    0.248946   -2.328298
C     -3.608282   -0.507634   -1.023410
C     -2.798261    0.032975    0.131290
C     -1.415227    0.242730    0.227316
N     -1.228484    1.015875    1.318515
N     -2.417141    1.217473    1.873757
N     -3.381717    0.654066    1.169522
C     -0.084404    1.536270    1.847701
C      1.056289    1.871137    1.058066
C      2.087755    2.631471    1.671659
C      2.032876    2.996761    3.012985
C      0.941361    2.635295    3.783929
C     -0.108129    1.928811    3.208507
C      1.244701    1.530003   -0.304166
O      2.018530    2.265875   -0.984139
C      0.777346    0.344977   -0.917410
C      1.566278   -0.195318   -1.967375
C      1.271531   -1.430773   -2.540505
Cl     2.300304   -2.086416   -3.801748
C      0.191288   -2.165312   -2.075011
C     -0.635023   -1.632327   -1.091881
C     -0.407676   -0.346269   -0.553600
H     -3.727069    2.037826   -4.260985
H     -2.101567    2.339842   -3.502437
H     -3.452224    3.493506   -3.230656
H     -4.644990    1.801046   -2.057159
H     -2.270997    0.093114   -2.624849
H     -3.975387   -0.175923   -3.130868
H     -4.688750   -0.406308   -0.781249
H     -3.436060   -1.590206   -1.168968
H      2.976389    2.920010    1.122521
H      2.845563    3.558114    3.456183
H      0.897682    2.918685    4.827805
H     -0.955585    1.689317    3.838876
H      2.459189    0.311861   -2.313716
H     -0.015535   -3.148564   -2.478369
H     -1.437898   -2.253222   -0.725319
