30

C      0.297027    0.501522    2.274637
C      1.116260   -0.777825    2.007157
C      0.577529   -1.565990    0.797240
C      0.408292   -0.675430   -0.456090
O     -0.269258   -1.419248   -1.449460
C      0.478008   -1.274612   -2.612711
C      1.843318   -0.851390   -2.176049
O      1.692839   -0.292279   -0.910873
C     -0.411363    0.608708   -0.116581
C     -1.901741    0.298686    0.250476
C     -2.267170    0.500383    1.739445
C     -1.124186    0.154128    2.659877
O     -1.351409   -0.369318    3.740147
C      0.292138    1.381302    1.015914
H      0.768116    1.070664    3.105687
H      2.176751   -0.500337    1.819367
H      1.102889   -1.430797    2.906870
H      1.278117   -2.397856    0.566688
H     -0.396048   -2.029927    1.066590
H      0.011934   -0.495151   -3.254579
H      0.515395   -2.237869   -3.164609
H      2.272031   -0.102478   -2.875510
H      2.521775   -1.729619   -2.109018
H     -0.408966    1.257392   -1.021172
H     -2.562942    0.957892   -0.353370
H     -2.174142   -0.739403   -0.035198
H     -2.539171    1.564177    1.910681
H     -3.158217   -0.117208    1.986528
H     -0.239906    2.337825    1.215371
H      1.332635    1.647436    0.727260
