59

C     -0.080256   -1.610279   -0.059590
C     -0.575258   -0.588258    0.972646
O     -0.448580   -1.108589    2.288452
C     -1.707548   -1.184187    2.927416
O     -2.460997   -2.247417    2.380624
C     -3.836931   -2.015173    2.577559
C      0.447148    0.525844    0.715012
C      0.325318    1.891758    1.422385
C      0.515288    1.769602    2.943350
C      1.363739    2.904411    0.829447
C      2.441785    2.321587   -0.149934
C      3.691667    1.874062    0.627093
C      1.952878    1.197844   -1.138993
C      0.529476    0.658335   -0.829355
C     -0.525863    1.643706   -1.424358
C      0.141530   -0.789686   -1.333156
C      1.022029   -1.570986   -2.338015
C      1.010207   -0.886485   -3.718833
C      0.516274   -3.013503   -2.483095
O      0.806711   -3.640907   -3.492137
C     -0.232066   -3.764736   -1.382554
C      0.750276   -4.685601   -0.692262
C      0.529794   -6.000142   -0.576389
C     -0.938676   -2.856476   -0.332250
C     -2.308592   -2.513395   -0.764018
N     -3.382394   -2.245389   -1.099966
H      0.910287   -1.985198    0.296092
H     -1.599504   -0.227573    0.707959
H     -1.528736   -1.399210    4.002300
H     -2.226499   -0.193467    2.882204
H     -4.178890   -1.151397    1.964207
H     -4.073684   -1.857715    3.654037
H     -4.392921   -2.909774    2.233797
H      1.415233    0.103191    1.077871
H     -0.700104    2.289252    1.255014
H      1.487154    1.288838    3.184523
H     -0.303787    1.180614    3.397006
H      0.485620    2.775162    3.415790
H      0.812203    3.711842    0.304501
H      1.880807    3.457229    1.644499
H      2.781172    3.175486   -0.778272
H      4.478638    1.530776   -0.078015
H      3.458296    1.053178    1.334554
H      4.110811    2.725119    1.207284
H      1.986009    1.613955   -2.167001
H      2.672627    0.354043   -1.121645
H     -1.533918    1.456352   -0.997334
H     -0.277648    2.707030   -1.267860
H     -0.590934    1.511457   -2.526479
H     -0.851618   -0.719903   -1.834169
H      2.068880   -1.623335   -1.971297
H      1.367373    0.155142   -3.665292
H      1.683268   -1.420629   -4.422720
H     -0.016496   -0.878911   -4.142119
H     -1.011509   -4.385947   -1.883355
H      1.652485   -4.265101   -0.255629
H     -0.365216   -6.459742   -0.985525
H      1.254709   -6.626948   -0.067549
H     -1.042121   -3.422758    0.618473
