59

C      0.724788    1.089303   -0.260594
C      0.875992    0.169663    0.966533
O      1.319360    0.905705    2.095645
C      2.693684    0.678978    2.343818
O      2.870509   -0.588029    2.943402
C      4.243982   -0.817545    3.162352
C     -0.595948   -0.237077    1.124810
C     -1.084034   -1.247065    2.185893
C     -0.560189   -0.918706    3.590065
C     -2.640077   -1.191285    2.193104
C     -3.306881   -1.284511    0.786479
C     -4.791782   -0.912771    0.882818
C     -2.610479   -0.412677   -0.305924
C     -1.070202   -0.610971   -0.303797
C     -0.733083   -2.086262   -0.698112
C     -0.188991    0.320822   -1.223235
C     -0.840801    1.283536   -2.240499
C     -1.369941    0.506724   -3.462073
C      0.156871    2.340637   -2.730827
O     -0.193790    3.073869   -3.645740
C      1.554513    2.575126   -2.135028
C      1.629798    4.006453   -1.645303
C      2.793238    4.660175   -1.568966
C      1.976932    1.604744   -0.982020
C      2.830163    0.508913   -1.483944
N      3.498815   -0.350431   -1.875759
H      0.183433    2.004371    0.086910
H      1.494619   -0.732143    0.740771
H      3.295699    0.771070    1.410880
H      3.037137    1.475886    3.040065
H      4.802421   -0.856069    2.200691
H      4.681045   -0.047196    3.836171
H      4.362605   -1.802748    3.658117
H     -1.106941    0.715678    1.421632
H     -0.740766   -2.274598    1.950456
H     -1.057112   -1.564986    4.344854
H     -0.753026    0.144294    3.850176
H      0.525616   -1.121391    3.650582
H     -3.027954   -2.017973    2.828141
H     -2.958819   -0.237225    2.671405
H     -3.284381   -2.347046    0.467236
H     -4.912373    0.146083    1.197580
H     -5.285921   -1.050797   -0.102685
H     -5.303489   -1.566220    1.621500
H     -3.039760   -0.688988   -1.288262
H     -2.851603    0.657820   -0.125761
H     -1.008122   -2.261574   -1.760169
H      0.352646   -2.291926   -0.588483
H     -1.261822   -2.852145   -0.104042
H      0.471795   -0.328143   -1.841610
H     -1.686136    1.817971   -1.758851
H     -1.983203    1.174791   -4.103600
H     -2.001707   -0.350838   -3.170091
H     -0.524996    0.111534   -4.066894
H      2.273935    2.475517   -2.980470
H      0.724517    4.512619   -1.319621
H      3.722031    4.183804   -1.867983
H      2.819900    5.680531   -1.200840
H      2.594908    2.159026   -0.243882
