31

C     -0.875535    0.960181    0.480133
O     -1.088955    2.232140   -0.093501
C     -0.753601    2.064883   -1.438999
O     -0.991069    2.929297   -2.322147
C     -0.055377    0.749558   -1.692254
C      0.344053    0.431317   -0.241098
C      0.406362   -0.988197    0.330207
C     -0.034046   -0.799538    1.833132
C      1.129468   -1.141509    2.793813
C     -1.200019   -1.762689    2.157965
C     -0.544591    0.702383    1.934539
C      0.497047    1.725299    2.426780
C      1.683505    1.815627    1.505830
O      2.681723    2.410177    1.882136
C      1.661774    1.224601    0.116520
H     -1.786420    0.353550    0.236374
H     -0.773921    0.003113   -2.095277
H      0.818351    0.860056   -2.370423
H     -0.300439   -1.642177   -0.228702
H      1.418792   -1.436386    0.227411
H      0.844726   -0.918853    3.844274
H      1.381384   -2.221822    2.725517
H      2.052284   -0.581644    2.543103
H     -2.076687   -1.573723    1.503558
H     -1.524985   -1.636134    3.213237
H     -0.886684   -2.819018    2.011491
H     -1.457883    0.791285    2.564364
H      0.022894    2.728700    2.485754
H      0.830257    1.464578    3.453259
H      2.546762    0.564277   -0.008984
H      1.818749    2.074591   -0.583483
