33

O      3.274910    2.736438   -0.981378
C      2.624621    1.896484   -0.300588
C      1.559300    2.412446    0.629002
N      0.235030    2.047285    0.134891
C     -0.667409    1.262261    0.747411
C     -1.765578    1.211521   -0.090838
C     -3.032235    0.472522    0.119408
C     -4.102131    0.642267   -0.778552
C     -5.302604   -0.049695   -0.589944
C     -5.447123   -0.920640    0.491962
C     -4.391185   -1.101649    1.387441
C     -3.189650   -0.409365    1.206063
N     -1.496399    1.970345   -1.175529
N     -0.277912    2.464920   -1.011074
C      2.911055    0.444004   -0.464297
C      2.355809   -0.522114    0.399785
C      2.632611   -1.880739    0.218639
C      3.469590   -2.294372   -0.818390
C      4.033151   -1.349933   -1.677622
C      3.758379    0.009895   -1.503507
H      1.721228    2.017761    1.654849
H      1.622182    3.520490    0.697733
H     -0.532200    0.786878    1.709737
H     -4.013676    1.314007   -1.623345
H     -6.122056    0.090885   -1.282845
H     -6.376440   -1.456073    0.635910
H     -4.503218   -1.779594    2.223716
H     -2.387966   -0.573433    1.913083
H      1.718150   -0.239517    1.224211
H      2.201896   -2.613849    0.888908
H      3.682595   -3.346740   -0.955287
H      4.683502   -1.671145   -2.481062
H      4.205038    0.720393   -2.188029
