37

C     -4.564959   -0.454192    2.357748
O     -4.386853   -0.909052    1.020270
C     -3.451667   -0.376259    0.120553
C     -2.588206    0.678661    0.465240
C     -1.671780    1.175623   -0.466303
C     -1.595725    0.628711   -1.762128
C     -0.622585    1.136073   -2.769488
O     -0.651319    0.678839   -3.944756
C      0.431220    2.157758   -2.434883
N      1.440178    1.581153   -1.551185
C      2.259466    0.552356   -1.827578
C      3.045171    0.373468   -0.703935
C      4.107426   -0.637355   -0.490522
C      4.429342   -1.579237   -1.486883
C      5.434480   -2.526441   -1.267017
C      6.127818   -2.545423   -0.055078
C      5.817571   -1.616924    0.940539
C      4.813581   -0.667518    0.726483
N      2.681659    1.300195    0.209001
N      1.709357    2.019252   -0.332449
C     -2.466527   -0.424914   -2.098243
C     -3.381857   -0.919462   -1.165281
H     -5.366666   -1.050307    2.839683
H     -4.866008    0.614728    2.360621
H     -3.625861   -0.588686    2.935031
H     -2.617395    1.123390    1.450619
H     -1.031698    1.990770   -0.162107
H      0.926552    2.510611   -3.365689
H     -0.036747    3.047057   -1.961664
H      2.271647   -0.002326   -2.756207
H      3.909772   -1.589819   -2.434965
H      5.675821   -3.246955   -2.037892
H      6.905249   -3.279590    0.112517
H      6.355403   -1.632429    1.879730
H      4.590559    0.042235    1.513276
H     -2.439366   -0.873419   -3.083440
H     -4.041229   -1.731917   -1.443673
