214

C      0.156372   -5.199338    9.359777
O      0.534991   -4.916706    8.019754
C     -0.052212   -3.884565    7.278813
O     -0.873248   -3.100833    7.828913
C      0.276983   -3.733027    5.813276
C      1.007598   -2.373924    5.541823
O      2.371319   -2.658226    5.269213
Si     3.479209   -1.427504    5.802627
C      3.159512   -0.859469    7.561556
C      3.499592    0.023521    4.623632
C      5.189567   -2.178108    5.772002
C      0.406273   -1.619161    4.353125
C     -1.124024   -1.751697    4.336359
O     -1.723624   -1.487800    5.609705
Si    -1.667103    0.152414    6.265429
C     -1.590306   -0.007476    8.119834
C     -3.240521    1.090483    5.896881
C     -0.245502    1.279304    5.803015
C     -1.746719   -0.886351    3.196696
C     -3.238765   -1.211549    2.921762
O     -3.935184   -1.119300    4.149543
Si    -5.221769   -2.271484    4.363046
C     -4.901693   -3.953653    3.615027
C     -5.391316   -2.538429    6.203018
C     -6.850024   -1.579370    3.761972
C     -3.848949   -0.186672    1.936287
C     -3.703626   -0.510234    0.420903
O     -4.915163   -0.089453   -0.186177
Si    -5.734718   -1.341010   -1.068879
C     -4.817013   -1.679653   -2.642464
C     -7.440972   -0.722379   -1.501105
C     -5.913305   -2.928490   -0.095551
C     -2.507189    0.263845   -0.247127
O     -2.915893    0.812149   -1.493184
Si    -3.213201    2.528111   -1.440524
C     -3.818857    3.050736   -3.126996
C     -4.533976    2.978718   -0.195455
C     -1.655790    3.491075   -1.057228
C     -1.291522   -0.660515   -0.550855
C      0.041378    0.102456   -0.380932
C      1.311809   -0.541745   -1.025686
O      1.009820   -1.784269   -1.647974
Si     1.746689   -3.158527   -0.854451
C      0.993910   -4.729409   -1.535777
C      1.491811   -3.089246    0.992898
C      3.585794   -3.286360   -1.173001
C      1.897483    0.420633   -2.091697
C      3.301399    0.024547   -2.589922
O      3.552005    0.689449   -3.818229
Si     4.267424   -0.363448   -5.011661
C      5.893919   -1.069537   -4.420159
C      4.593850    0.621704   -6.559484
C      3.113091   -1.771686   -5.445041
C      4.405781    0.373608   -1.565337
C      4.613091    1.841290   -1.317815
O      5.099044    2.208381   -0.213645
O      4.404047    2.780022   -2.336820
C      5.290956    3.877339   -2.549873
C      6.437636    3.419107   -3.461163
C      4.541767    5.118998   -3.113852
C      3.853570    5.909908   -1.984361
C      3.609718    4.838805   -4.340164
O      3.473174    6.054162   -5.059723
Si     4.111544    6.027259   -6.678320
C      5.041582    7.625551   -6.938045
C      2.687058    5.965966   -7.880927
C      5.299244    4.634757   -7.083966
C      2.187129    4.270392   -3.983500
C      1.103512    5.368943   -3.910066
C      1.765111    3.195234   -4.971113
C      0.659810    2.472474   -4.768486
C      0.335515    1.288146   -5.577068
C     -0.799988    0.626935   -5.344452
C     -1.008214   -0.749654   -5.828806
C     -2.133858   -1.390409   -5.519808
C     -2.140730   -2.853793   -5.348543
C     -3.269433   -3.469034   -4.987298
C     -3.275972   -4.545378   -3.980762
C     -2.561748   -4.395179   -2.859196
C     -2.814391   -5.183067   -1.638702
C     -2.314745   -4.754240   -0.478065
C     -2.482464   -5.477343    0.794180
C     -1.759593   -5.098403    1.855288
C     -1.817747   -5.754502    3.177164
O     -2.708444   -6.609718    3.434103
C     -0.774460   -5.421374    4.211004
C     -0.998289   -4.066979    4.936807
O     -1.371615   -3.094988    3.969527
H     -0.922955   -5.461359    9.399527
H      0.353714   -4.320751   10.008537
H      0.742762   -6.065606    9.733824
H      1.035631   -4.524154    5.623953
H      0.886190   -1.722150    6.436005
H      4.032300   -0.277439    7.915408
H      3.019019   -1.747755    8.208160
H      2.259309   -0.217606    7.602770
H      2.645499    0.697075    4.825143
H      3.444508   -0.353188    3.580877
H      4.442645    0.591123    4.761275
H      5.931129   -1.424010    6.108897
H      5.216216   -3.055177    6.452680
H      5.430833   -2.501808    4.738879
H      0.733939   -0.571446    4.334883
H      0.810033   -2.062947    3.421396
H     -0.602847   -0.418638    8.418158
H     -2.398015   -0.682176    8.473033
H     -1.718425    0.993777    8.582803
H     -4.119192    0.496453    6.221623
H     -3.310442    1.315043    4.812853
H     -3.229853    2.049304    6.455328
H      0.706954    0.840131    6.151877
H     -0.383973    2.249172    6.322964
H     -0.218630    1.475148    4.712390
H     -1.621707    0.191973    3.414011
H     -1.175834   -1.076037    2.271576
H     -3.278235   -2.227717    2.482187
H     -5.718507   -4.646767    3.903235
H     -3.949478   -4.334870    4.024932
H     -4.846783   -3.898881    2.510280
H     -4.414837   -2.862838    6.619177
H     -6.156649   -3.318030    6.397247
H     -5.699599   -1.587501    6.683776
H     -6.809552   -1.355202    2.679914
H     -7.076922   -0.645960    4.317656
H     -7.654086   -2.321121    3.950359
H     -4.935475   -0.137766    2.157788
H     -3.502996    0.840568    2.178716
H     -3.528430   -1.603434    0.311403
H     -3.761555   -1.914534   -2.403877
H     -5.299074   -2.541578   -3.146974
H     -4.857529   -0.788151   -3.300835
H     -7.354737    0.178383   -2.141273
H     -7.985271   -0.464853   -0.567854
H     -7.994501   -1.515590   -2.046144
H     -4.931744   -3.434561   -0.001680
H     -6.310134   -2.701482    0.909621
H     -6.621046   -3.602600   -0.622623
H     -2.153748    1.044499    0.465738
H     -2.987182    2.980533   -3.857977
H     -4.182412    4.097374   -3.082090
H     -4.650097    2.383296   -3.441230
H     -4.707816    4.073728   -0.226644
H     -4.204589    2.693993    0.822803
H     -5.480450    2.458564   -0.446345
H     -1.858713    4.575754   -1.169676
H     -0.853186    3.199221   -1.763959
H     -1.327980    3.284929   -0.018495
H     -1.277615   -1.548345    0.109818
H     -1.380537   -1.044927   -1.592776
H      0.221185    0.235906    0.709471
H     -0.105973    1.128144   -0.779580
H      2.066271   -0.625143   -0.213891
H      0.396037   -4.495429   -2.439041
H      0.353777   -5.207156   -0.768751
H      1.798380   -5.440980   -1.813521
H      2.263569   -2.435576    1.446689
H      0.490382   -2.674250    1.200139
H      1.574370   -4.106239    1.426224
H      3.783004   -3.330728   -2.262706
H      3.965844   -4.217143   -0.704760
H      4.111982   -2.425352   -0.720835
H      1.200707    0.423146   -2.955982
H      1.934878    1.463198   -1.702051
H      3.286723   -1.076495   -2.704795
H      6.554895   -0.245500   -4.082196
H      6.385694   -1.614419   -5.252733
H      5.716902   -1.776667   -3.581823
H      5.315579    1.430971   -6.328175
H      3.642303    1.054172   -6.930752
H      5.025908   -0.045321   -7.336308
H      3.036240   -2.484249   -4.596834
H      2.109697   -1.367006   -5.680412
H      3.511028   -2.311349   -6.329382
H      4.200038   -0.115068   -0.595407
H      5.373051   -0.039671   -1.919965
H      5.759391    4.182282   -1.585413
H      7.120322    4.264188   -3.692326
H      7.027887    2.630202   -2.947887
H      6.050670    2.988090   -4.403973
H      5.340258    5.806568   -3.481658
H      3.413574    6.845137   -2.385901
H      4.596984    6.206616   -1.216396
H      3.071307    5.304338   -1.486853
H      4.132886    4.052402   -4.911374
H      5.454324    7.655454   -7.965273
H      5.869678    7.686019   -6.201152
H      4.350705    8.481569   -6.785155
H      3.075052    6.015315   -8.917897
H      2.013240    6.829851   -7.694615
H      2.122892    5.020254   -7.735596
H      4.751192    3.669975   -7.119016
H      6.105558    4.589385   -6.323097
H      5.753383    4.816804   -8.078722
H      2.225251    3.781623   -2.988049
H      1.377852    6.158355   -3.179348
H      0.133634    4.954559   -3.560928
H      0.941322    5.838397   -4.905748
H      2.396868    2.956864   -5.818349
H      0.025974    2.696438   -3.915345
H      1.065670    0.891897   -6.279123
H     -1.533605    1.052733   -4.663592
H     -0.181428   -1.288223   -6.277036
H     -2.973221   -0.824627   -5.118793
H     -1.192282   -3.352445   -5.183990
H     -4.220422   -2.998909   -5.201603
H     -4.052166   -5.300644   -4.027943
H     -1.873815   -3.560391   -2.778186
H     -3.425648   -6.078468   -1.678647
H     -1.718080   -3.848333   -0.468698
H     -3.170925   -6.313290    0.860156
H     -1.053852   -4.287485    1.740287
H     -0.735879   -6.234017    4.967001
H      0.211779   -5.406475    3.692218
H     -1.885940   -4.209318    5.597651
