198

C     -6.258713   -6.472406    2.226319
O     -6.260653   -5.096987    1.854679
C     -5.224370   -4.239081    2.239946
O     -4.161924   -4.699698    2.742873
C     -5.340061   -2.764405    1.942586
C     -4.669763   -2.458535    0.596329
O     -5.441638   -3.026453   -0.434798
Si    -4.539480   -3.868721   -1.669952
C     -5.644067   -5.288980   -2.161984
C     -2.918270   -4.622367   -1.094748
C     -4.271660   -2.749240   -3.205776
C     -5.408121   -1.727990   -3.298916
C     -2.920319   -2.014777   -3.100681
C     -4.245801   -3.605045   -4.482565
C     -4.659893   -0.961651    0.399613
C     -4.003061   -0.199197    1.568976
O     -2.610466   -0.574298    1.576276
C     -1.950087   -0.417383    2.831079
C     -4.206191    1.315773    1.197273
C     -3.446658    2.457453    1.887893
O     -3.532438    2.357556    3.303673
Si    -3.624178    3.923621    4.092016
C     -4.196387    5.344138    2.963487
C     -1.908127    4.429909    4.656607
C     -4.820523    3.769150    5.577094
C     -4.051376    3.996362    6.890350
C     -5.950319    4.808417    5.479090
C     -5.425114    2.374503    5.570039
C     -1.958742    2.557265    1.409636
C     -1.726209    3.585474    0.271017
O     -0.599478    4.338789    0.584614
C      0.485280    3.722521   -0.071905
C      1.348134    2.986808    0.949944
C      1.338351    4.804157   -0.753392
O      0.006827    2.812880   -1.048960
C     -1.391567    2.919598   -1.053540
C     -1.853877    3.763712   -2.270427
C     -2.362361    2.937427   -3.465986
C     -1.355414    2.066445   -4.250771
C     -0.031677    2.787931   -4.479129
C      0.826941    1.921931   -5.404843
C      2.161589    2.635274   -5.721027
C      3.225198    1.663379   -6.145493
O      3.137038    1.049077   -7.247500
O      4.312604    1.447685   -5.292920
C      5.485568    0.703378   -5.606985
C      6.704343    1.557324   -5.226579
C      5.524854   -0.675723   -4.869645
C      4.751074   -1.766103   -5.652428
C      5.237624   -0.660553   -3.312790
O      5.309356   -1.986787   -2.791538
Si     6.900872   -2.567049   -2.371211
C      8.361071   -1.565844   -2.980043
C      7.023777   -4.251177   -3.155788
C      7.048552   -2.759859   -0.488146
C      7.405090   -1.398197    0.152688
C      8.174138   -3.756800   -0.144363
C      5.722134   -3.279002    0.100638
C      3.855598   -0.059502   -2.855871
C      2.672837   -0.828354   -3.460627
C      3.767311   -0.124431   -1.352460
C      2.659715    0.153914   -0.656466
C      2.491546   -0.367521    0.702807
C      3.502907   -0.475396    1.565257
C      3.362344   -1.321845    2.725103
C      3.950915   -0.982785    3.877989
C      3.528354   -1.445011    5.210429
C      2.308320   -1.928307    5.457366
C      1.393227   -1.127168    6.253374
C      0.078193   -1.327578    6.163748
C     -0.873180   -0.319781    6.603657
C     -1.863296   -0.695213    7.422255
C     -3.248489   -0.462738    6.964366
C     -3.686706   -1.176409    5.935301
C     -5.100567   -1.216241    5.523222
O     -5.988225   -0.612208    6.192488
C     -5.521491   -2.113190    4.399457
C     -4.731051   -1.890804    3.083468
O     -4.718547   -0.497598    2.779399
O      0.123465    1.711287   -6.604974
C     -1.136553    1.069332   -6.423687
C     -0.967376   -0.423535   -6.077992
C     -1.843604    1.165054   -7.780190
O     -1.971338    1.742700   -5.486332
H     -7.236837   -6.926669    1.963868
H     -6.111675   -6.597885    3.323069
H     -5.462947   -7.023704    1.683915
H     -6.428263   -2.527113    1.853275
H     -3.620453   -2.816078    0.635010
H     -6.534152   -4.885170   -2.698285
H     -5.990171   -5.798791   -1.243021
H     -5.097251   -5.996907   -2.813294
H     -3.109644   -5.243288   -0.197747
H     -2.187676   -3.820041   -0.854006
H     -2.507544   -5.254109   -1.907435
H     -5.334519   -0.978596   -2.478778
H     -5.350753   -1.174752   -4.265338
H     -6.394919   -2.233730   -3.248745
H     -2.079980   -2.740801   -3.084365
H     -2.860882   -1.400915   -2.184126
H     -2.783263   -1.339556   -3.974006
H     -4.044038   -2.964165   -5.368648
H     -5.222968   -4.092489   -4.651113
H     -3.451006   -4.368939   -4.434417
H     -4.103121   -0.728429   -0.530656
H     -5.711762   -0.599017    0.263210
H     -1.020006    0.157920    2.666287
H     -1.615162   -1.404596    3.204848
H     -2.536921    0.120719    3.617881
H     -4.032506    1.455949    0.111136
H     -5.299849    1.532600    1.358580
H     -4.000826    3.339517    1.521566
H     -3.459417    5.483192    2.140525
H     -4.211878    6.281568    3.540080
H     -5.199217    5.116908    2.538432
H     -1.242085    4.549920    3.780958
H     -1.963759    5.397142    5.189171
H     -1.495118    3.641350    5.320124
H     -4.723471    3.838101    7.760844
H     -3.189322    3.300820    6.960486
H     -3.676807    5.038756    6.940681
H     -6.633369    4.714934    6.357447
H     -5.537164    5.843029    5.455899
H     -6.551075    4.637628    4.561218
H     -4.623958    1.607143    5.568377
H     -6.070479    2.228735    4.666212
H     -6.069434    2.221703    6.462476
H     -1.596965    1.577777    1.086532
H     -1.335363    2.825477    2.289931
H     -2.583043    4.283641    0.187292
H      2.244233    2.561224    0.463422
H      1.684936    3.676889    1.743996
H      0.786093    2.151971    1.417314
H      1.610956    5.581737   -0.016152
H      0.787239    5.283075   -1.586692
H      2.271150    4.358415   -1.167161
H     -1.847112    1.907014   -1.113592
H     -2.700577    4.413345   -1.971907
H     -1.058201    4.449488   -2.605124
H     -2.809159    3.675404   -4.186788
H     -3.214677    2.290109   -3.130941
H     -1.177314    1.155378   -3.646146
H     -0.207488    3.790817   -4.936775
H      0.513576    2.918404   -3.522529
H      1.028686    0.960564   -4.904544
H      2.007974    3.374072   -6.514449
H      2.519962    3.164514   -4.826790
H      5.561197    0.528423   -6.696586
H      6.808399    2.380422   -5.963162
H      6.584324    1.998023   -4.212473
H      7.649903    0.970406   -5.286550
H      6.560621   -1.015527   -4.952099
H      3.979708   -1.334528   -6.346039
H      5.469279   -2.360651   -6.281341
H      4.268723   -2.499939   -4.977384
H      6.006048   -0.017334   -2.838613
H      9.283340   -1.947425   -2.498537
H      8.491602   -1.691657   -4.070270
H      8.253465   -0.493284   -2.717416
H      6.203779   -4.895010   -2.766253
H      6.909553   -4.154733   -4.251915
H      8.001852   -4.718706   -2.927060
H      6.759333   -0.592096   -0.244015
H      8.461206   -1.127940   -0.069640
H      7.289429   -1.430492    1.259090
H      8.413565   -3.738943    0.943940
H      7.880621   -4.798066   -0.408844
H      9.106577   -3.506809   -0.700697
H      5.524873   -4.322429   -0.240473
H      4.870970   -2.646144   -0.219259
H      5.761385   -3.284122    1.212421
H      3.775156    1.016187   -3.122154
H      2.703433   -1.899320   -3.146186
H      2.650044   -0.743068   -4.562186
H      1.701169   -0.421645   -3.107516
H      4.633489   -0.483992   -0.827237
H      1.772307    0.533495   -1.132886
H      1.529904   -0.772312    0.957668
H      4.454216    0.023813    1.391740
H      2.682462   -2.155700    2.632507
H      4.667318   -0.161674    3.878974
H      3.984493   -0.865748    6.008403
H      1.857679   -2.619135    4.761336
H      1.784262   -0.267910    6.799003
H     -0.317742   -2.173796    5.605084
H     -0.978529    0.539778    5.954782
H     -1.726471   -1.581996    8.016200
H     -3.907120    0.137105    7.587251
H     -2.976685   -1.787114    5.392391
H     -5.366811   -3.163046    4.733001
H     -6.608679   -2.022380    4.206158
H     -3.700095   -2.258049    3.275272
H     -0.152147   -0.864312   -6.698767
H     -0.694309   -0.589119   -5.011569
H     -1.899299   -0.986996   -6.310214
H     -1.853996    2.221219   -8.121963
H     -2.892797    0.802415   -7.710037
H     -1.302862    0.568293   -8.543604
