43

C      1.522313    1.377881   -0.708025
C      2.302972    2.670873   -0.556155
C      1.221950    3.543346    0.026271
O      1.294922    4.761740    0.065772
C      0.025824    2.757308    0.515537
C     -0.421048    3.201187    1.921145
C     -1.545531    2.349373    2.445264
C     -2.767917    2.387709    1.907191
C      0.634775    1.355559    0.497729
C     -0.149992    0.081909    0.290576
C      0.928427   -0.912400   -0.246779
C      2.133090   -0.002512   -0.695398
O      1.280823   -1.767887    0.837877
C      2.143438   -2.810612    0.435529
C      1.499554   -3.659269   -0.666322
C      0.239179   -4.372234   -0.131962
C      2.503375   -4.710398   -1.176441
C      1.128874   -2.692698   -1.798914
O      0.332079   -1.620575   -1.333150
H      0.908108    1.465027   -1.641216
H      3.149329    2.567365    0.156722
H      2.646679    3.049228   -1.542638
H     -0.806104    2.850314   -0.217374
H     -0.754407    4.261436    1.889613
H      0.435092    3.141556    2.628539
H     -1.362339    1.701772    3.297523
H     -3.559328    1.766541    2.313537
H     -2.987920    3.035906    1.064504
H      1.254570    1.223887    1.422052
H     -0.609285   -0.263427    1.242621
H     -0.957834    0.252261   -0.456776
H      2.530872   -0.248619   -1.700247
H      2.960976   -0.036307    0.047015
H      2.355601   -3.448185    1.320725
H      3.123534   -2.401047    0.103205
H     -0.510077   -3.639416    0.236973
H     -0.235469   -4.977501   -0.934100
H      0.502326   -5.051447    0.707373
H      3.423932   -4.222928   -1.564367
H      2.055127   -5.310412   -1.997607
H      2.795167   -5.400724   -0.355721
H      0.552184   -3.239446   -2.575831
H      2.038499   -2.311500   -2.309865
