28

O      3.099214    3.197950    0.793763
C      2.594860    2.175701    0.354932
C      2.622397    1.887613   -1.123505
C      1.258264    1.374447   -1.605797
C      0.744171    0.293244   -0.682758
C      0.304590   -0.874997   -1.190830
C     -0.157471   -2.023030   -0.386607
C      0.669104   -2.600845    0.593123
C      0.234075   -3.720020    1.309633
C     -1.016490   -4.282166    1.038660
C     -1.829903   -3.731211    0.044440
C     -1.398151   -2.611604   -0.674036
C      0.655675    0.664156    0.784553
C      2.018223    1.148337    1.293319
H      3.397737    1.116219   -1.321221
H      2.892440    2.804577   -1.691237
H      0.529900    2.214243   -1.613032
H      1.363963    1.010121   -2.651312
H      0.267928   -0.998390   -2.266872
H      1.650136   -2.189205    0.796448
H      0.869666   -4.156120    2.069421
H     -1.351197   -5.149773    1.592438
H     -2.793255   -4.174288   -0.172599
H     -2.034118   -2.198513   -1.447587
H     -0.081846    1.489293    0.890329
H      0.296802   -0.161016    1.429692
H      2.717414    0.286844    1.357081
H      1.900213    1.577762    2.312024
