28

O     -0.800452   -4.616584    3.416508
C     -0.697090   -3.478695    2.984573
C     -1.916356   -2.627713    2.773406
C     -1.875994   -1.977242    1.386714
C     -0.528744   -1.339394    1.117530
C     -0.475320   -0.092059    0.607364
C      0.757186    0.587435    0.159103
C      1.029369    1.887269    0.612147
C      2.167000    2.566197    0.163982
C      3.028130    1.959999   -0.754865
C      2.747995    0.677481   -1.234174
C      1.611460   -0.004377   -0.788460
C      0.700720   -2.201071    1.349808
C      0.655856   -2.879071    2.726306
H     -2.839250   -3.240520    2.868051
H     -1.941604   -1.836573    3.553656
H     -2.704597   -1.238498    1.318365
H     -2.057289   -2.754957    0.613341
H     -1.390594    0.483596    0.533536
H      0.366093    2.370848    1.319061
H      2.378737    3.563976    0.526033
H      3.907048    2.487500   -1.102270
H      3.407177    0.214772   -1.957244
H      1.393332   -0.987094   -1.187803
H      1.640425   -1.613648    1.306746
H      0.743603   -2.978894    0.557101
H      0.865545   -2.124976    3.515566
H      1.443434   -3.662233    2.777995
