36

C     -2.454585    0.028622    2.979347
C     -3.388347    0.414762    1.838466
C     -2.407965   -0.001559    0.748905
O     -2.303183    0.109507   -0.461112
C     -1.685802   -0.697585    1.881172
C     -2.012040   -2.215381    1.822195
C     -0.192353   -0.490830    2.235295
C      0.406874    0.834103    1.744380
O      0.601123    0.780993    0.334699
C      1.156723    1.840014   -0.392212
O      1.506980    2.897185    0.203513
C      1.413148    1.674323   -1.877770
C      0.239893    0.914567   -2.526676
C      1.556252    3.048098   -2.566748
C      2.711101    0.870618   -2.066098
O     -0.236755   -0.524759    3.658593
C     -1.545603   -0.347339    4.094041
O     -1.891091   -0.434440    5.301150
H     -2.136246    1.089730    3.118778
H     -4.305870   -0.214733    1.820083
H     -3.650465    1.497907    1.759954
H     -3.106753   -2.395432    1.754175
H     -1.636122   -2.743322    2.724735
H     -1.529321   -2.666985    0.929278
H      0.439262   -1.328601    1.864854
H     -0.247726    1.693237    2.001011
H      1.390461    0.985089    2.239948
H      0.132099   -0.101343   -2.088607
H     -0.712351    1.467246   -2.374196
H      0.404353    0.798577   -3.619873
H      0.638900    3.657419   -2.414975
H      1.716376    2.924283   -3.659778
H      2.423427    3.609097   -2.155673
H      2.625368   -0.130063   -1.589154
H      2.928891    0.724626   -3.146306
H      3.570834    1.403647   -1.604905
