44

C     -1.597952    4.648832   -1.538799
C     -1.828645    3.323395   -2.257813
C     -0.525427    2.614382   -2.512853
O      0.298036    3.116174   -3.263731
C     -0.214932    1.305364   -1.839459
C      0.185627    1.529020   -0.377097
C      0.588450    0.227434    0.270998
C      1.860480   -0.175084    0.437502
Si     3.401897    0.780762    0.021514
C      3.585931    2.269874    1.138184
C      4.863212   -0.341341    0.325015
C      3.447191    1.305741   -1.772099
C     -0.468243   -0.671565    0.665997
C     -1.355002   -1.419982    0.992229
C     -2.415618   -2.311734    1.379339
C     -3.464169   -2.583619    0.489669
C     -4.495649   -3.449535    0.867739
C     -4.482098   -4.044692    2.133167
C     -3.436792   -3.774909    3.022172
C     -2.403756   -2.909598    2.647101
H     -0.975098    5.325162   -2.162282
H     -2.573963    5.142566   -1.347939
H     -1.090515    4.476356   -0.565759
H     -2.496969    2.689499   -1.635692
H     -2.339139    3.510961   -3.226743
H     -1.108749    0.646189   -1.890264
H      0.608389    0.793142   -2.382994
H     -0.681120    1.950115    0.178089
H      0.989024    2.286579   -0.315147
H      2.047214   -1.152511    0.867842
H      4.565603    2.752577    0.943775
H      3.542391    1.941394    2.196825
H      2.777586    3.003014    0.948584
H      5.802377    0.205768    0.102446
H      4.866553   -0.665069    1.386137
H      4.788903   -1.231291   -0.333079
H      2.727103    2.128509   -1.950214
H      4.467148    1.663099   -2.021251
H      3.194614    0.439648   -2.417362
H     -3.483824   -2.127060   -0.492745
H     -5.305147   -3.658980    0.180387
H     -5.280976   -4.714198    2.424664
H     -3.427274   -4.235956    4.001378
H     -1.598634   -2.706657    3.343060
