46

C     -0.691148   -0.242055   -0.745870
C     -1.231036   -0.112888   -2.169327
C     -2.617754   -0.663043   -1.976203
C     -2.960058   -0.714627   -0.682197
C     -1.915484   -0.047230    0.161525
C     -2.385221    1.385846    0.365642
O     -2.731902    1.784438    1.513292
O     -2.539072    2.233440   -0.737442
C     -3.109393    3.532587   -0.639854
C     -1.557654   -0.690645    1.476574
O     -2.322082   -1.464124    2.033737
C     -0.267167   -0.258335    2.145231
C      0.942140   -0.176719    1.165537
C      0.642514    0.411001   -0.264973
C      0.628942    1.972072   -0.265473
O      0.126058    2.504810    0.955492
C      0.092248    3.874012    1.230844
C     -0.454215    4.345553    2.534834
O      0.479484    4.714207    0.374139
C      1.770476   -0.049883   -1.232923
O      3.052986    0.332512   -0.738280
C      4.239411    0.052858   -1.421127
C      5.541502    0.472346   -0.828939
O      4.222565   -0.587486   -2.507495
H     -0.458218   -1.340685   -0.691404
H     -0.655210   -0.736287   -2.886812
H     -1.268794    0.939660   -2.515946
H     -3.268346   -0.982682   -2.783411
H     -3.931274   -1.045344   -0.328009
H     -4.153581    3.461145   -0.269287
H     -2.511070    4.163609    0.048217
H     -3.115254    4.003455   -1.643946
H     -0.016406   -0.970631    2.961263
H     -0.429865    0.727860    2.625845
H      1.326855   -1.215331    1.053433
H      1.757733    0.403167    1.650479
H      1.660888    2.365610   -0.395344
H      0.035540    2.357068   -1.120228
H     -0.436368    3.518079    3.274980
H     -1.501108    4.685806    2.396952
H      0.158137    5.186788    2.921669
H      1.615153    0.405339   -2.236423
H      1.753482   -1.155938   -1.355132
H      5.909220   -0.322042   -0.146534
H      5.408002    1.413545   -0.255106
H      6.291711    0.643714   -1.630183
