46

C      0.571835    0.337003   -0.558796
C      0.331145    1.834353   -0.732534
C      0.493366    1.953928   -2.224811
C      0.423154    0.762174   -2.834217
C      0.031086   -0.299755   -1.850949
C     -1.479646   -0.450761   -1.955884
O     -2.239690    0.508996   -1.645968
O     -2.029873   -1.635106   -2.460921
C     -3.432383   -1.846403   -2.563675
C      0.697696   -1.647193   -1.950321
O      1.234132   -2.017620   -2.983699
C      0.585265   -2.574298   -0.753033
C      0.913918   -1.867585    0.592959
C      0.284755   -0.439086    0.767260
C      0.982729    0.292162    1.951310
O      2.367650    0.510475    1.687868
C      3.210912    1.176045    2.580822
C      4.650209    1.353850    2.236550
O      2.777489    1.590115    3.690294
C     -1.229121   -0.558268    1.097777
O     -1.425628   -1.072465    2.413793
C     -2.694209   -1.274688    2.963514
C     -2.815999   -1.795700    4.354766
O     -3.733366   -0.980985    2.312066
H      1.689423    0.272627   -0.649815
H     -0.689589    2.135813   -0.419653
H      1.096638    2.439511   -0.200492
H      0.650266    2.889503   -2.750993
H      0.478649    0.629015   -3.909996
H     -3.899979   -1.781742   -1.558302
H     -3.883044   -1.087535   -3.237687
H     -3.618836   -2.856255   -2.982804
H     -0.447342   -2.979472   -0.710021
H      1.271323   -3.439311   -0.882832
H      2.021978   -1.792122    0.653883
H      0.602510   -2.527654    1.431662
H      0.487779    1.273009    2.127601
H      0.893501   -0.310489    2.881821
H      5.244103    0.538315    2.698543
H      5.014740    2.332592    2.613884
H      4.782725    1.322501    1.134717
H     -1.709165    0.441522    1.027036
H     -1.734636   -1.251096    0.398693
H     -3.723003   -2.429434    4.448044
H     -2.888466   -0.944476    5.062904
H     -1.924528   -2.406402    4.608948
