35

C     -1.066305   -1.288621    1.965145
C     -1.595968   -2.126647    3.134382
N     -1.665997    0.048329    1.978694
C     -1.685916    0.886899    0.816458
O     -1.284093    0.443655   -0.296256
O     -2.145493    2.204170    0.934663
C     -2.223747    3.111203   -0.163249
C     -3.426929    2.786837   -1.044563
C      0.434441   -1.168735    2.034464
O      0.973612   -0.725657    3.086645
C      1.261584   -1.512989    0.857831
C      2.601026   -1.470033    0.888954
C      3.455488   -1.808669   -0.275615
C      3.001712   -1.683352   -1.606564
C      3.852773   -1.988467   -2.674559
C      5.159636   -2.414016   -2.431767
C      5.621554   -2.536661   -1.117045
C      4.777520   -2.228157   -0.044796
H     -1.368461   -1.814763    1.031520
H     -1.134639   -3.137372    3.118307
H     -1.372817   -1.642543    4.109940
H     -2.696366   -2.244877    3.042311
H     -2.030389    0.443248    2.878406
H     -1.285067    3.080218   -0.761116
H     -2.342307    4.138231    0.239622
H     -3.311887    1.783103   -1.510071
H     -3.508748    3.545307   -1.852594
H     -4.358333    2.803573   -0.435605
H      0.751717   -1.846222   -0.036097
H      3.099155   -1.236423    1.824902
H      2.004196   -1.329602   -1.831760
H      3.496659   -1.895752   -3.693981
H      5.816582   -2.643976   -3.262661
H      6.638127   -2.859722   -0.928689
H      5.156635   -2.315237    0.965923
