35

C     -0.308395   -2.433547   -2.728130
O      0.131650   -1.350334   -1.918738
C      0.767631   -1.540560   -0.687625
O      1.014079   -2.704905   -0.269250
C      1.196793   -0.351633    0.129431
C      2.383233    0.382657   -0.514361
C      2.278013    1.851289   -0.055962
C      2.674317    2.818414   -1.186246
C      3.138183    2.105678    1.194715
C      0.828976    1.990227    0.289113
O      0.299242    3.067083    0.524212
C      0.080187    0.699505    0.292841
C     -0.734206    0.520551    1.586852
O     -1.529626   -0.662774    1.517991
C     -1.146551   -1.894377    2.060578
C     -1.999028   -3.093805    1.823894
O     -0.118640   -1.993426    2.784042
H      0.556273   -3.067468   -3.017767
H     -1.052711   -3.043600   -2.173534
H     -0.784199   -2.032512   -3.646366
H      1.532541   -0.699580    1.132611
H      3.349023   -0.084950   -0.219971
H      2.302934    0.318976   -1.623809
H      3.724667    2.634044   -1.498529
H      2.587917    3.873036   -0.846486
H      2.013973    2.682782   -2.070302
H      2.998638    3.146544    1.558599
H      4.214254    1.957364    0.960591
H      2.857874    1.408282    2.013929
H     -0.610467    0.705168   -0.579206
H     -0.076393    0.517707    2.484190
H     -1.427106    1.382370    1.692612
H     -2.544722   -2.984856    0.863227
H     -2.731449   -3.196511    2.651154
H     -1.368822   -4.006861    1.774701
