33

C     -2.354638   -2.268870   -0.831416
C     -1.471647   -1.092013   -0.368419
C     -2.115187   -0.439541    0.870613
C     -1.385743   -0.043515   -1.530955
C     -0.316942    1.006278   -1.315017
N     -0.537048    2.232057   -1.688830
N      0.340344    3.328313   -1.571446
C      1.749998    3.293003   -1.850867
O      2.243519    4.218712   -2.550513
C      2.657048    2.290672   -1.254271
C      2.184558    1.101650   -0.710025
C      3.019101    0.167516   -0.135119
N      2.337851   -0.933344    0.240348
C      1.058699   -0.686446   -0.118954
C      0.930136    0.554581   -0.700407
C     -0.082608   -1.597901    0.017602
O      0.080578   -2.740817    0.525106
C      4.393524    0.372439   -0.052812
C      4.911523    1.565716   -0.584562
F      6.244996    1.803701   -0.528437
C      4.053515    2.515223   -1.183920
H     -1.884327   -2.793556   -1.691088
H     -3.355660   -1.904555   -1.148925
H     -2.500021   -3.004198   -0.010560
H     -1.506473    0.420522    1.223966
H     -2.194108   -1.172643    1.702573
H     -3.136235   -0.069723    0.634171
H     -1.142630   -0.565453   -2.482425
H     -2.374815    0.446668   -1.672689
H     -0.105435    4.269017   -1.655619
H      2.721663   -1.802083    0.674985
H      5.044212   -0.370271    0.390560
H      4.482508    3.426466   -1.581495
