27

C     -3.061125    2.219548   -3.822861
O     -3.516911    1.308809   -2.829509
C     -2.759976    0.979294   -1.701395
C     -3.273309    0.077072   -0.769946
C     -2.518318   -0.252268    0.356426
C     -1.249119    0.319897    0.557096
C     -0.451580   -0.040298    1.763223
O     -0.870508   -0.947355    2.533350
C      0.864491    0.611824    2.093976
C      2.014962   -0.077316    1.351607
C      3.353757    0.596101    1.663083
O      4.396126   -0.070141    1.004258
C     -0.773507    1.224290   -0.412692
N     -1.529824    1.526415   -1.501254
H     -3.834676    2.315185   -4.612122
H     -2.122874    1.842790   -4.282489
H     -2.883392    3.218173   -3.370446
H     -4.250219   -0.365564   -0.917595
H     -2.931151   -0.952883    1.071416
H      0.831272    1.695224    1.852612
H      1.041090    0.534483    3.189564
H      2.065405   -1.145318    1.658398
H      1.835778   -0.038450    0.255367
H      3.328006    1.667715    1.358944
H      3.545162    0.553345    2.756598
H      4.352428    0.205882    0.051475
H      0.196580    1.689640   -0.321472
