72

C      2.653763   -0.508920    4.321684
C      2.065606    0.580254    3.417285
C      2.488284    0.547875    1.905834
C      4.063083    0.563875    1.789256
C      4.768146   -0.804614    1.789333
C      1.890341    1.845036    1.304757
C      0.546501    1.877429    0.861987
C     -0.020331    3.048691    0.355648
C      0.727550    4.236322    0.305679
O      0.215352    5.432820   -0.222330
C     -1.051633    5.572601   -0.869024
C     -1.085234    4.815427   -2.171978
C     -2.216118    4.059338   -2.523671
C     -2.251361    3.367610   -3.738370
C     -1.164970    3.433525   -4.614521
C     -0.043153    4.195962   -4.279940
C     -0.004966    4.892633   -3.067480
C      2.031366    4.237263    0.805409
C      2.601963    3.067810    1.315473
C      1.919325   -0.652136    1.105645
C      2.264110   -0.785392   -0.256563
C      1.728226   -1.808954   -1.052184
C      2.114397   -1.911020   -2.501611
C      0.776995   -2.689377   -0.510972
O      0.213046   -3.672926   -1.343164
C     -0.934975   -4.464548   -1.030121
C     -2.189318   -3.619460   -1.002855
O     -2.200814   -2.572072   -1.636066
C     -3.436012   -4.062116   -0.232825
C     -3.180939   -3.937933    1.281345
C     -4.648604   -3.177468   -0.602322
C     -3.778411   -5.525423   -0.579891
C      0.407091   -2.552007    0.836346
C      0.960412   -1.546032    1.629412
H      2.152852   -0.469156    5.312752
H      2.502113   -1.524406    3.905920
H      3.737671   -0.331782    4.487985
H      2.374295    1.554974    3.857747
H      0.957558    0.562595    3.503628
H      4.370583    1.066203    0.845547
H      4.494313    1.170568    2.615847
H      5.842202   -0.663321    2.031556
H      4.338709   -1.507808    2.525083
H      4.714235   -1.271778    0.785535
H     -0.077928    0.994841    0.908243
H     -1.045696    3.017699    0.015373
H     -1.220366    6.647701   -1.086145
H     -1.860534    5.243149   -0.181429
H     -3.066887    3.998874   -1.856260
H     -3.122324    2.780683   -4.000705
H     -1.193418    2.895968   -5.553456
H      0.796421    4.249978   -4.961161
H      0.867698    5.485665   -2.823994
H      2.607524    5.154305    0.801756
H      3.601617    3.134756    1.721990
H      2.948952   -0.077320   -0.705615
H      2.371214   -2.961046   -2.753875
H      1.264251   -1.581406   -3.134933
H      2.996535   -1.278297   -2.733073
H     -0.778142   -5.004648   -0.074524
H     -1.052956   -5.229936   -1.824934
H     -4.096668   -4.200620    1.855559
H     -2.369339   -4.620795    1.610079
H     -2.891840   -2.896105    1.544148
H     -4.858167   -3.237021   -1.692465
H     -4.456517   -2.114831   -0.339347
H     -5.559245   -3.507068   -0.055953
H     -2.969264   -6.213856   -0.256260
H     -3.920727   -5.641277   -1.675960
H     -4.714660   -5.841172   -0.069512
H     -0.320328   -3.211300    1.283722
H      0.597197   -1.467635    2.641243
