64

C     -4.029012   -1.224587   -1.827379
C     -3.068766   -0.224656   -1.156634
C     -2.429385   -0.704075    0.203954
C     -3.606728   -1.134402    1.161326
C     -4.686930   -0.063766    1.402408
C     -1.464493   -1.905526    0.037627
C     -0.903105   -2.506286    1.188248
C      0.017223   -3.551776    1.088286
C      0.431774   -4.018406   -0.166279
C      1.414136   -5.119003   -0.276972
O      1.883298   -5.657069    0.764005
O      1.828418   -5.559172   -1.539522
C      2.790961   -6.591207   -1.714820
C     -0.081387   -3.407114   -1.317935
C     -0.998716   -2.357518   -1.220407
C     -1.561265    0.446385    0.778489
C     -0.564331    1.032417   -0.032211
C      0.278634    2.029141    0.457376
C      0.187939    2.450787    1.793010
O      1.022918    3.454948    2.317165
C      2.087659    4.091524    1.609047
C      3.246749    3.139835    1.401212
O      3.370607    2.205748    2.181892
C      4.308595    3.329044    0.314703
C      4.350716    2.066969   -0.569796
C      4.030800    4.552719   -0.586618
C      5.681289    3.522008    0.991321
C     -0.754854    1.843224    2.637364
C     -0.853438    2.263812    4.078205
C     -1.610237    0.847661    2.135419
H     -4.187158   -0.929421   -2.886214
H     -5.020572   -1.225271   -1.332768
H     -3.631794   -2.258860   -1.808515
H     -3.622991    0.724589   -0.991127
H     -2.293918    0.038604   -1.901864
H     -4.106105   -2.039155    0.752890
H     -3.232231   -1.459895    2.150976
H     -5.363653    0.030338    0.529586
H     -4.246149    0.932204    1.608970
H     -5.307940   -0.359738    2.275190
H     -1.147760   -2.148962    2.178432
H      0.415581   -3.983893    1.998142
H      2.419515   -7.536369   -1.265708
H      2.961948   -6.750014   -2.799101
H      3.750807   -6.301013   -1.238992
H      0.236193   -3.730122   -2.301746
H     -1.323158   -1.912850   -2.147030
H     -0.407329    0.704436   -1.049529
H      1.010256    2.453883   -0.214744
H      2.448879    4.947014    2.216348
H      1.696444    4.499079    0.655598
H      4.617510    1.170368    0.031670
H      5.107660    2.176729   -1.376584
H      3.360078    1.888389   -1.042430
H      4.851440    4.688576   -1.324246
H      3.959096    5.482289    0.019074
H      3.088547    4.418174   -1.159890
H      6.484087    3.651571    0.230846
H      5.943202    2.641001    1.617742
H      5.668028    4.422569    1.642852
H      0.151011    2.237190    4.548968
H     -1.517460    1.589402    4.659316
H     -1.257359    3.295218    4.137128
H     -2.298699    0.391253    2.827823
