32

C     -3.735145   -1.220291    1.596117
C     -3.361247    0.189938    2.038482
O     -2.237239    0.661931    1.299697
C     -0.929881    0.215616    1.521433
O     -0.661785   -0.512632    2.516021
C      0.163711    0.616077    0.571449
C      0.325568   -0.326629   -0.645862
C     -0.937222   -0.387183   -1.561511
C     -0.727777    0.323287   -2.898527
O     -1.186177   -1.764225   -1.784277
C     -0.334324   -2.564077   -1.056767
O     -0.411798   -3.820873   -1.063642
C      0.648015   -1.796617   -0.257338
C      2.071766   -2.191376   -0.589132
C      2.581390   -2.226770   -2.002940
O      2.839185   -2.469659    0.319548
H     -2.907479   -1.926847    1.815597
H     -4.643881   -1.554130    2.139645
H     -3.942020   -1.232187    0.504948
H     -3.145426    0.209098    3.128843
H     -4.221085    0.865067    1.844510
H      1.127431    0.657102    1.124607
H     -0.043055    1.644706    0.205006
H      1.175626    0.086857   -1.235979
H     -1.828201    0.052857   -1.070890
H     -0.508611    1.398377   -2.726052
H     -1.648411    0.242516   -3.514237
H      0.115177   -0.136672   -3.456746
H      0.448785   -2.000373    0.814998
H      1.789706   -1.939157   -2.725218
H      3.430825   -1.520099   -2.109062
H      2.928345   -3.252601   -2.246570
