49

C     -1.579815    1.852916   -0.235288
C     -2.283215    1.263584    1.001285
C     -2.857106    2.465020    1.749845
C     -2.038880    3.610915    1.270703
O     -2.139545    4.734995    1.739386
C     -1.053052    3.244761    0.204029
C     -1.099121    4.256353   -0.959572
C      0.362330    3.189415    0.846488
C      1.359308    2.317784    0.072102
C      0.804198    0.881533   -0.078613
C     -0.503967    0.955009   -0.904246
C     -1.066136   -0.414889   -1.381645
C     -0.383677   -1.695506   -0.826581
C     -0.594674   -2.866570   -1.817772
O     -1.956635   -3.042866   -2.104639
C      1.096104   -1.537598   -0.478138
C      1.701772   -2.557042    0.163258
C      3.051642   -2.428560    0.706750
O      3.614881   -3.416494    1.247269
C      3.729088   -1.140983    0.647327
C      3.146047   -0.100477    0.056366
C      1.796450   -0.179761   -0.663412
C      2.107321    0.035034   -2.163019
H     -2.384062    2.006874   -0.993673
H     -1.563019    0.732316    1.657566
H     -3.094063    0.559295    0.716383
H     -2.753756    2.336112    2.848707
H     -3.922310    2.627959    1.478399
H     -0.430470    3.934039   -1.784672
H     -0.771342    5.261343   -0.617344
H     -2.131389    4.349986   -1.360906
H      0.777923    4.216473    0.943941
H      0.294827    2.780938    1.881114
H      1.574307    2.769813   -0.919601
H      2.297404    2.323192    0.661118
H      0.557510    0.532997    0.949535
H     -0.241489    1.497776   -1.841481
H     -2.153931   -0.486036   -1.168172
H     -1.016486   -0.429482   -2.493573
H     -0.909622   -1.950990    0.121284
H     -0.057350   -2.650601   -2.766335
H     -0.181280   -3.818513   -1.419197
H     -2.366831   -3.445448   -1.295080
H      1.173795   -3.483204    0.352397
H      4.715964   -1.031957    1.080388
H      3.728130    0.809064   -0.016537
H      2.865019   -0.703789   -2.504493
H      1.221475   -0.098408   -2.811224
H      2.516007    1.052536   -2.338802
