33

C     -2.837627   -2.602368   -1.183056
C     -2.309633   -2.165178    0.191816
C     -1.734538   -3.396111    0.918312
C     -3.470165   -1.551632    0.998326
O     -1.282875   -1.188996   -0.038810
C     -0.532987   -0.525751    0.943120
O     -0.713022   -0.748724    2.169527
N      0.452637    0.419980    0.541851
C      1.430715    1.315199    1.187348
C      1.988966    1.878160   -0.087862
C      0.976142    0.969801   -0.722146
C      1.794235    3.380463   -0.315350
C      3.162024    3.766945   -0.641997
O      3.507018    4.911237   -0.890979
C      4.080272    2.611186   -0.637084
O      3.323266    1.461014   -0.328014
H     -3.247343   -1.728469   -1.734073
H     -2.015332   -3.037786   -1.790862
H     -3.641420   -3.363232   -1.078638
H     -1.420365   -3.145990    1.952046
H     -0.851007   -3.786802    0.369467
H     -2.496619   -4.202604    0.983593
H     -3.828965   -0.622049    0.506762
H     -4.318563   -2.266393    1.067575
H     -3.156654   -1.300813    2.032091
H      0.909387    2.060341    1.828028
H      2.177424    0.727521    1.766740
H      1.437867    0.166084   -1.338139
H      0.170200    1.500031   -1.276309
H      1.126933    3.602442   -1.175548
H      1.455280    3.918075    0.595904
H      4.546084    2.491674   -1.637894
H      4.869582    2.755643    0.130481
