33

C     -1.345217   -3.423572    0.446596
C     -1.829744   -2.332268   -0.520077
C     -3.367052   -2.389331   -0.604649
C     -1.200143   -2.578641   -1.904497
O     -1.399418   -1.071207    0.013631
C     -1.628791    0.191043   -0.552481
O     -2.264778    0.321423   -1.631699
N     -1.130592    1.348698    0.109580
C     -1.129513    2.809005   -0.100611
C     -0.360789    3.142928    1.142514
C     -0.369066    1.652559    1.335174
C      1.010227    3.788675    0.930302
C      1.321110    4.492378    2.202833
O      2.433275    4.945815    2.422291
C      0.217514    4.633097    3.195681
S     -1.315746    4.038459    2.414513
H     -0.237743   -3.395486    0.535454
H     -1.646146   -4.433352    0.092085
H     -1.775882   -3.261049    1.458178
H     -3.757793   -1.676384   -1.358902
H     -3.814610   -2.136136    0.380281
H     -3.704733   -3.407294   -0.896508
H     -1.590016   -1.865744   -2.659247
H     -1.430113   -3.605999   -2.261005
H     -0.096658   -2.460991   -1.849977
H     -2.168624    3.206422   -0.097831
H     -0.593266    3.065270   -1.041613
H      0.636228    1.178051    1.296620
H     -0.934481    1.323694    2.235301
H      1.799395    3.043337    0.692121
H      0.964740    4.541894    0.114501
H      0.441024    4.023564    4.096058
H      0.093581    5.698303    3.482405
