19

O     -1.596870    0.001740    3.819751
C     -1.494658    0.100919    2.569312
C     -2.587779   -0.139384    1.556126
O     -1.938405    0.109647    0.294080
C     -0.616614    0.456535    0.531815
C     -0.311181    0.465321    1.838404
S      1.297141    0.888091    2.115679
C      1.591885    1.063878    0.442426
C      0.439523    0.792015   -0.300793
C      0.444993    0.872879   -1.692737
C      1.641251    1.235693   -2.334661
C      2.803157    1.509728   -1.583930
C      2.783972    1.424531   -0.181527
H     -3.424348    0.575075    1.705331
H     -2.943032   -1.190099    1.604686
H     -0.448007    0.662129   -2.267364
H      1.670844    1.305321   -3.414252
H      3.717355    1.787983   -2.091918
H      3.673463    1.634027    0.398206
