42

O      2.108851    1.701729    5.490169
C      2.235618    1.837397    4.243524
C      1.482997    0.940739    3.323645
C      0.645425   -0.058940    3.853013
C     -0.070921   -0.912734    3.010114
C      0.029046   -0.788436    1.614933
C     -0.734481   -1.693717    0.718542
C     -1.351128   -1.194323   -0.443527
C     -2.069665   -2.047494   -1.296824
C     -2.684566   -1.511015   -2.560945
C     -1.677860   -1.540920   -3.678635
C     -0.811240   -0.454641   -3.880319
C      0.155809   -0.496536   -4.891632
Cl     1.218775    0.887156   -5.110441
C      0.265731   -1.635840   -5.706846
Cl     1.467581   -1.729092   -6.987031
C     -0.589600   -2.723614   -5.499358
C     -1.552980   -2.680302   -4.488252
C     -2.155709   -3.414218   -0.992916
C     -1.551233   -3.916953    0.160607
C     -0.846071   -3.064458    1.013511
C      0.863738    0.207617    1.081870
C      1.581620    1.061329    1.923962
P      3.335296    3.128699    3.646857
O      4.557142    2.445753    2.694737
O      2.449843    4.236496    2.723787
O      3.959953    3.846695    4.822088
H      0.539256   -0.182460    4.923556
H     -0.718694   -1.659596    3.451841
H     -1.285553   -0.139450   -0.681135
H     -3.044431   -0.471146   -2.398387
H     -3.581051   -2.109165   -2.836796
H     -0.885289    0.422491   -3.248945
H     -0.505664   -3.607160   -6.119420
H     -2.199377   -3.535563   -4.334324
H     -2.688973   -4.089951   -1.650242
H     -1.621841   -4.972422    0.390140
H     -0.368480   -3.481358    1.891289
H      0.975914    0.316751    0.010244
H      2.211941    1.809951    1.466415
H      4.983947    1.767739    3.277246
H      3.130596    4.838145    2.329479
