83

C     -5.138743    7.148791    1.632958
O     -4.111053    6.881056    0.689381
C     -4.097700    5.726743   -0.101078
O     -5.057403    4.907979   -0.044897
C     -2.930042    5.465625   -1.018579
C     -2.802414    6.560477   -2.079338
N     -3.058705    4.152205   -1.664442
C     -1.986358    3.318818   -1.238587
C     -1.111572    3.992815   -0.420689
C     -0.031815    3.323919    0.158852
C      0.068015    1.960001    0.005767
C     -0.798488    1.247084   -0.850608
C     -1.844338    1.946752   -1.502051
O     -2.771602    1.305042   -2.330872
C     -2.457587    0.261780   -3.211309
O     -1.255993    0.038708   -3.529217
N     -3.513071   -0.519635   -3.799083
C     -4.870111   -0.432795   -3.249518
C     -5.603969   -1.761478   -3.447705
N     -5.542435   -2.175902   -4.862552
C     -6.314117   -3.414586   -5.057334
C     -4.139584   -2.390564   -5.268198
C     -3.345795   -1.089427   -5.142144
N      1.034058    1.410299    0.892849
C      1.037871    0.049768    1.361451
O     -0.033215   -0.612244    1.385963
C      2.269651   -0.562373    1.884236
C      3.563681   -0.209186    1.518898
C      4.378130   -1.034466    2.263940
C      5.758713   -1.115134    2.316170
C      6.351340   -2.061293    3.188366
O      7.747200   -2.192794    3.251035
C      8.674229   -1.441839    2.474772
C      5.518000   -2.892103    4.011358
O      6.045582   -3.857337    4.891672
C      7.418582   -4.126423    5.148503
C      4.098031   -2.758415    3.933069
O      3.185788   -3.494299    4.708772
C      3.492223   -4.248097    5.879525
C      3.577812   -1.832737    3.028498
N      2.280250   -1.558811    2.800167
C      1.554477    2.507827    1.716443
C      1.043001    3.826271    1.070439
C      2.190282    4.491203    0.283191
Br     1.695544    6.170017   -0.552011
C     -1.656558    5.326039   -0.221142
O     -1.193254    6.193788    0.565961
H     -5.158873    6.353519    2.405623
H     -4.938310    8.121106    2.126033
H     -6.123046    7.204262    1.123257
H     -3.728897    6.609244   -2.691171
H     -1.944415    6.344605   -2.751973
H     -2.635115    7.549637   -1.602684
H     -3.840924    3.859722   -2.293142
H     -0.697501    0.176228   -0.967308
H     -5.424065    0.382816   -3.764336
H     -4.838207   -0.205720   -2.161368
H     -6.662751   -1.618750   -3.138053
H     -5.152861   -2.536407   -2.787929
H     -6.336235   -3.682117   -6.136865
H     -7.369947   -3.266427   -4.734125
H     -5.871644   -4.261390   -4.479980
H     -3.657464   -3.173617   -4.640055
H     -4.094085   -2.723419   -6.329905
H     -2.274020   -1.305872   -5.354650
H     -3.710678   -0.355990   -5.896750
H      3.865835    0.538449    0.797414
H      6.349965   -0.462921    1.689455
H      8.498005   -1.623868    1.392695
H      9.705597   -1.767572    2.726700
H      8.579416   -0.358928    2.707064
H      7.916891   -4.487749    4.226520
H      7.487819   -4.930963    5.910211
H      7.919114   -3.219380    5.549296
H      4.026771   -5.181452    5.605770
H      2.550095   -4.531166    6.384137
H      4.094930   -3.637823    6.582246
H      1.450441   -2.006135    3.249168
H      1.142115    2.420461    2.745215
H      2.661341    2.458857    1.778608
H      0.635284    4.514627    1.841599
H      3.029606    4.714801    0.974435
H      2.564819    3.805122   -0.508384
