43

C      0.010130    0.798108    1.604158
C      1.380388    0.257202    1.880212
O      2.136865    0.887848    2.666581
C      1.850322   -1.012989    1.281123
C      1.653248   -1.320093   -0.084699
N      1.138851   -0.343303   -0.999221
C      1.906572    0.808814   -1.435949
C      1.121205    1.396910   -2.602371
C     -0.280163    0.787358   -2.513652
O     -1.126647    1.674477   -1.777447
C     -2.513752    1.529056   -1.617323
C     -3.182184    2.435449   -0.784559
C     -4.562698    2.333446   -0.587866
C     -5.287739    1.323289   -1.225397
F     -6.626258    1.224748   -1.033742
C     -4.631902    0.414123   -2.059765
C     -3.250964    0.512995   -2.258178
C     -0.087355   -0.523697   -1.751997
C      2.029940   -2.578140   -0.572964
C      2.630119   -3.515665    0.268041
C      2.888665   -3.202617    1.611371
C      3.502706   -4.226263    2.533378
F      4.284229   -3.606569    3.492958
F      2.495915   -4.935575    3.161030
F      4.303344   -5.108437    1.828225
C      2.476954   -1.956566    2.112973
H     -0.412723    1.239987    2.530698
H     -0.669655   -0.012210    1.268779
H      0.059526    1.586922    0.826832
H      1.993760    1.546590   -0.611298
H      2.921288    0.495356   -1.764861
H      1.095481    2.507557   -2.556040
H      1.596342    1.089022   -3.560007
H     -0.688593    0.621101   -3.534694
H     -2.627571    3.219717   -0.284988
H     -5.069110    3.037641    0.059822
H     -5.193003   -0.368713   -2.554062
H     -2.769511   -0.204655   -2.907508
H      0.031237   -1.366836   -2.466008
H     -0.934571   -0.736375   -1.066608
H      1.878443   -2.824077   -1.616362
H      2.902683   -4.482269   -0.136568
H      2.619487   -1.729614    3.163243
