31

C     -0.041921    0.283778    0.312046
C     -0.548346   -0.846348    1.182708
S     -1.683771   -1.601325   -0.018569
O     -1.072568   -2.802908   -0.682314
O     -3.000660   -1.952135    0.614406
C     -1.843891   -0.210930   -1.177033
C     -1.329065    0.880772   -0.264936
C     -0.695748    2.300648   -0.305208
C     -1.549651    3.237957    0.617907
C     -0.184076    3.108135   -1.503244
C      0.967999    4.096488   -1.027302
C      1.461098    4.026622    0.490941
C      1.191965    2.692892    1.187484
O      1.481233    2.475053    2.352789
C      0.578146    1.684047    0.309870
H      0.547245   -0.266375   -0.472511
H      0.267567   -1.544106    1.467192
H     -1.087732   -0.473072    2.080119
H     -2.902292   -0.040092   -1.466978
H     -1.197926   -0.345242   -2.071498
H     -2.130766    0.932819    0.517967
H     -2.597334    3.262013    0.248347
H     -1.202456    4.289599    0.621604
H     -1.557102    2.872767    1.668193
H      0.203549    2.418893   -2.286130
H     -1.018345    3.681861   -1.962589
H      1.851381    3.914193   -1.677032
H      0.648164    5.139669   -1.237909
H      0.971338    4.834457    1.074343
H      2.553013    4.228357    0.523084
H      1.399785    1.575392   -0.446360
