29

C     -0.719009   -0.666437    1.036412
C      0.688848   -1.283052    0.976343
C      0.937821   -1.881523   -0.415086
C      0.822766   -0.825609   -1.523004
C     -0.434747    0.002284   -1.392503
O     -0.993411    0.401348   -2.403585
C     -0.884947    0.477672   -0.016882
C     -0.137005    1.715235    0.508936
C      0.773831    2.411612   -0.190879
C     -0.567446    2.202880    1.887175
C     -1.693556    1.268283    2.389042
C     -1.100887   -0.163241    2.473395
O     -2.729731    1.259838    1.390158
C     -2.344529    0.860896    0.102402
O     -3.172607    0.803550   -0.844975
H     -1.436872   -1.481075    0.777126
H      1.461102   -0.515514    1.202844
H      0.772243   -2.091993    1.734317
H      0.205493   -2.696901   -0.605532
H      1.954378   -2.329607   -0.443600
H      1.705743   -0.154001   -1.478146
H      0.837378   -1.337215   -2.509894
H      1.063239    2.134575   -1.197097
H      1.236031    3.294743    0.239502
H      0.295396    2.188485    2.588213
H     -0.955577    3.241954    1.814943
H     -2.092508    1.603437    3.369821
H     -0.219325   -0.163248    3.152146
H     -1.859514   -0.843603    2.917827
