79

C     -0.573372    0.901296   -2.856707
C      0.415358    2.009550   -2.354770
C      0.815987    2.990238   -3.472231
C     -0.181955    2.808843   -1.184400
C     -0.541101    1.891821   -0.012854
O     -1.088049    2.624370    1.060315
Si     0.071616    3.413734    2.107218
C      0.262027    5.187813    1.541307
C     -0.805455    3.526578    3.755134
C      1.801836    2.625510    2.414506
C      2.510445    3.429332    3.529450
C      2.690379    2.692650    1.153866
C      1.660485    1.165528    2.894595
C     -1.606832    0.899643   -0.478178
C     -1.201950    0.033780   -1.707160
C     -0.491785   -1.364388   -1.427862
C      0.954468   -1.171204   -0.892403
C     -1.303416   -2.156645   -0.359144
C     -0.908957   -3.627789   -0.261198
C     -1.148860   -4.347013   -1.589444
O     -0.824269   -5.725813   -1.435001
C     -1.983742   -6.529671   -1.358134
O     -2.528611   -6.457717   -0.051437
C     -3.895645   -6.110386   -0.100708
C     -0.308603   -3.727882   -2.750454
C      1.177454   -4.172059   -2.650445
C     -0.855564   -4.345955   -4.068578
C     -0.522966   -2.148935   -2.794900
C      0.328906   -1.420259   -3.857370
C      0.023205    0.055336   -3.978991
O      0.339673    0.608009   -5.024777
H     -1.427270    1.446714   -3.315313
H      1.355888    1.550175   -2.003716
H      1.312708    3.893384   -3.048331
H     -0.067376    3.327357   -4.054039
H      1.556923    2.523457   -4.151181
H     -1.083340    3.365471   -1.522221
H      0.570862    3.551884   -0.845851
H      0.327448    1.317435    0.306687
H     -0.739342    5.605594    1.307212
H      0.723968    5.790205    2.348635
H      0.910375    5.249818    0.645817
H     -0.271193    4.229769    4.422760
H     -0.848007    2.528352    4.232264
H     -1.837079    3.898174    3.593997
H      3.537465    3.038965    3.711181
H      1.958828    3.364318    4.488240
H      2.601198    4.501412    3.247622
H      2.309857    2.073330    0.320784
H      3.710664    2.312618    1.383152
H      2.785965    3.740661    0.797860
H      1.121982    1.118757    3.861649
H      1.114987    0.533370    2.168523
H      2.667262    0.714493    3.051787
H     -1.935846    0.285184    0.377506
H     -2.507364    1.491286   -0.759959
H     -2.202538   -0.253492   -2.104016
H      0.950770   -0.750738    0.127011
H      1.512342   -2.117523   -0.832960
H      1.565418   -0.520383   -1.536815
H     -1.153420   -1.720467    0.652227
H     -2.388105   -2.093951   -0.588552
H     -1.532167   -4.099989    0.525943
H      0.140488   -3.738304    0.072276
H     -2.223282   -4.179491   -1.841451
H     -2.693028   -6.298468   -2.195046
H     -1.672165   -7.579790   -1.529337
H     -4.481075   -6.855237   -0.691132
H     -4.024598   -5.089579   -0.525529
H     -4.297590   -6.098667    0.934978
H      1.273939   -5.248751   -2.883584
H      1.819281   -3.652507   -3.385845
H      1.605045   -4.050779   -1.642478
H     -0.851709   -5.459319   -4.022166
H     -0.233028   -4.063476   -4.939232
H     -1.901290   -4.028343   -4.254311
H     -1.566998   -2.047660   -3.162322
H      0.147338   -1.876814   -4.850284
H      1.414872   -1.510981   -3.642503
