49

C     -1.527319    0.175117    0.704073
C     -2.705819   -0.837493    0.669446
C     -2.236174   -2.083981    1.395643
C     -1.214158   -1.566961    2.331111
O     -0.791632   -2.229688    3.267502
C     -0.761652   -0.163901    2.042484
C     -1.268426    0.751769    3.180709
C      0.798085   -0.119575    2.001199
C      1.347533    0.632620    0.805890
C      0.826203   -0.028348   -0.480231
C     -0.672828    0.315125   -0.630643
C     -1.243908   -0.423742   -1.853751
C     -0.393723   -0.294139   -3.084526
C      0.932612   -0.057549   -3.047899
C      1.769391   -0.356362   -4.271210
C      2.686326   -1.566700   -4.003617
C      2.970708   -1.804198   -2.504646
C      3.036340   -0.480279   -1.723680
C      1.682049    0.327494   -1.763194
C      2.035266    1.846992   -1.852319
O      0.894247    2.639932   -2.028911
H     -2.009366    1.174065    0.825322
H     -3.130042   -1.082159   -0.320907
H     -3.552004   -0.405602    1.251055
H     -1.768698   -2.802674    0.689001
H     -3.075640   -2.564873    1.942918
H     -0.968470    1.803954    2.986018
H     -2.376529    0.711861    3.261811
H     -0.842575    0.441076    4.159615
H      1.212829    0.345483    2.923035
H      1.230289   -1.146276    1.977708
H      2.454896    0.602806    0.862388
H      1.037210    1.699875    0.861827
H      0.886139   -1.135223   -0.355714
H     -0.734320    1.390844   -0.889807
H     -1.326113   -1.509557   -1.632555
H     -2.249740   -0.018825   -2.097283
H     -0.852120   -0.608063   -4.018344
H      2.393784    0.531810   -4.504310
H      1.145815   -0.551765   -5.171299
H      3.647914   -1.412548   -4.540200
H      2.217876   -2.483628   -4.423012
H      3.931484   -2.352072   -2.393893
H      2.169241   -2.442195   -2.071671
H      3.345902   -0.712723   -0.684389
H      3.871728    0.112271   -2.158873
H      2.715749    2.026062   -2.714692
H      2.590283    2.178187   -0.947879
H      1.208022    3.581407   -2.040487
