52

C      1.218272    1.657862   -0.041142
C      1.333524    0.225786    0.540838
C      0.507428   -0.626962   -0.429815
C     -0.254997    0.424676   -1.249991
C     -1.524853    1.012099   -0.551686
C     -1.266492    1.975467    0.671476
C     -1.769982    1.401756    2.024192
C     -3.230719    1.022134    1.991394
C     -4.301773    2.068740    1.910179
O     -3.552119   -0.155644    2.028979
C      0.197492    2.556989    0.708271
C      0.716924    3.091123    2.064213
O      0.946922    2.063076    2.986060
N      0.734022    1.479365   -1.412556
C     -0.321740   -1.730434    0.198601
O     -1.124058   -1.572149    1.154168
N     -0.045748   -3.015406   -0.355848
C     -0.436101   -4.290623    0.236979
C      1.035592   -2.807376   -1.251000
C      1.721255   -3.790158   -1.971144
C      2.794937   -3.398867   -2.802311
O      3.530323   -4.321715   -3.560604
C      3.283171   -5.723825   -3.579575
C      3.151383   -2.038517   -2.879289
C      2.455282   -1.070031   -2.141512
C      1.390541   -1.474842   -1.327910
H      2.216530    2.147513   -0.064108
H      2.399473   -0.091882    0.566282
H      0.943304    0.140467    1.570113
H     -0.544243    0.017205   -2.244884
H     -2.222741    0.190207   -0.299286
H     -2.063052    1.600745   -1.327412
H     -1.920144    2.860853    0.496264
H     -1.159090    0.537964    2.341574
H     -1.667144    2.167805    2.820023
H     -4.997842    1.955882    2.767535
H     -4.867076    1.948044    0.962531
H     -3.866413    3.089501    1.941679
H      0.147577    3.487723    0.095888
H     -0.018316    3.816121    2.480113
H      1.667941    3.644477    1.893054
H      1.254528    2.503353    3.820454
H      0.306554    2.346111   -1.817484
H      0.328048   -4.607549    0.977083
H     -1.418733   -4.191960    0.744197
H     -0.532073   -5.064277   -0.552456
H      1.427514   -4.826325   -1.885662
H      2.256046   -5.925476   -3.950531
H      3.412186   -6.148045   -2.561417
H      4.009433   -6.210813   -4.262012
H      3.976168   -1.733813   -3.510839
H      2.751109   -0.031621   -2.199428
