52

C      0.255873    1.321135    2.309788
C      0.027956   -0.082042    1.701549
C     -0.257567    0.210421    0.221617
C     -0.446237    1.737255    0.193296
C     -1.862830    2.237448    0.610190
C     -2.244363    2.037344    2.126219
C     -3.372516    0.973006    2.299042
C     -4.289092    1.246791    3.470474
C     -4.557551    0.202695    4.515589
O     -4.867241    2.320419    3.547975
C     -0.987404    1.867748    3.069141
C     -1.243224    1.133923    4.404505
O     -0.110490    1.197621    5.231220
N      0.523610    2.202137    1.172352
C     -1.352803   -0.622315   -0.416606
O     -2.516815   -0.753838    0.041681
N     -0.911439   -1.320698   -1.579602
C     -1.617268   -2.427547   -2.217282
C      0.481391   -1.061436   -1.660676
C      1.376159   -1.598489   -2.591003
C      2.740204   -1.238550   -2.508010
O      3.700535   -1.729606   -3.404708
C      3.416446   -2.624248   -4.475345
C      3.164154   -0.358567   -1.493228
C      2.250518    0.162125   -0.565301
C      0.902911   -0.202252   -0.665217
H      1.147497    1.313040    2.973088
H     -0.802209   -0.630655    2.184416
H      0.942343   -0.702769    1.830218
H     -0.199482    2.149710   -0.810972
H     -1.880555    3.330782    0.402588
H     -2.623965    1.818566   -0.079321
H     -2.708416    3.005502    2.423790
H     -4.031740    0.969078    1.405585
H     -2.945762   -0.042624    2.380153
H     -5.639950   -0.043427    4.522565
H     -3.986217   -0.728022    4.318283
H     -4.270852    0.591649    5.514805
H     -0.706676    2.900516    3.381351
H     -2.066107    1.649508    4.939578
H     -1.550561    0.077231    4.244374
H      0.407021    0.363878    5.080419
H      0.385254    3.215106    1.402586
H     -1.341447   -3.381335   -1.720968
H     -1.352533   -2.478695   -3.293507
H     -2.714502   -2.277653   -2.138901
H      1.020379   -2.274796   -3.354724
H      2.696129   -2.158829   -5.180887
H      3.002758   -3.575385   -4.078532
H      4.356020   -2.845973   -5.021580
H      4.208535   -0.082406   -1.422787
H      2.592697    0.825995    0.216774
