74

C     -5.109731   -2.164527   -1.877934
C     -4.424225   -0.983864   -2.562764
C     -4.121512    0.138376   -1.562719
C     -3.294096    1.252345   -2.224081
C     -3.117736    2.485883   -1.312040
C     -1.741271    2.563789   -0.619416
C     -1.515527    1.492804    0.468788
C     -0.136609    1.627094    1.075372
O      0.223034    2.700521    1.536863
C      0.786816    0.439927    1.180043
C      2.029143    0.597470    0.272651
C      1.703307    0.210239   -1.186758
C      1.513680   -1.310258   -1.410280
C      0.141088   -1.643596   -2.011291
C      0.029083   -3.141827   -2.317935
C     -1.357804   -3.498021   -2.843251
O      3.076064   -0.227456    0.744774
Si     4.158677    0.586410    1.847146
C      3.437589    2.109188    2.690086
C      5.656319    1.150597    0.876101
C      4.663563   -0.684918    3.169188
C      5.578318   -0.028996    4.217044
C      5.406040   -1.851296    2.495601
C      3.394902   -1.221817    3.853629
C     -2.541443    1.579261    1.564914
O     -3.103596    0.528511    1.979077
O     -2.843702    2.818569    2.136407
C     -3.810516    2.971808    3.168295
H     -4.437366   -2.606258   -1.109869
H     -6.055174   -1.836466   -1.394156
H     -5.345230   -2.944356   -2.632813
H     -5.088866   -0.598368   -3.367324
H     -3.480211   -1.337714   -3.031241
H     -5.082212    0.555182   -1.185048
H     -3.564966   -0.284945   -0.702250
H     -3.824734    1.578215   -3.146311
H     -2.305597    0.850124   -2.540289
H     -3.208679    3.392535   -1.949883
H     -3.936301    2.559756   -0.564601
H     -1.642324    3.574557   -0.164031
H     -0.943345    2.482294   -1.388420
H     -1.587791    0.498145   -0.014028
H      0.247261   -0.499842    0.943187
H      1.098452    0.340749    2.239173
H      2.332146    1.667404    0.223825
H      2.547683    0.554963   -1.826250
H      0.812470    0.781669   -1.526771
H      1.628835   -1.877187   -0.461913
H      2.308461   -1.670983   -2.098843
H     -0.009481   -1.064021   -2.949781
H     -0.654255   -1.358209   -1.288225
H      0.786094   -3.424965   -3.081271
H      0.222379   -3.731323   -1.396119
H     -1.575427   -2.929397   -3.773879
H     -1.403083   -4.583622   -3.069705
H     -2.128733   -3.263829   -2.077973
H      3.161750    2.879534    1.942177
H      2.550360    1.835460    3.293352
H      4.201396    2.549778    3.360746
H      6.150011    0.277805    0.400685
H      6.373575    1.655835    1.557147
H      5.335406    1.863332    0.086666
H      5.898658   -0.778393    4.973998
H      5.047630    0.785129    4.753494
H      6.487968    0.393142    3.737557
H      6.347473   -1.504318    2.018744
H      5.671047   -2.629078    3.243617
H      4.770807   -2.324803    1.715526
H      2.835585   -0.401456    4.351968
H      2.721169   -1.705410    3.114243
H      3.660328   -1.978130    4.623727
H     -3.520930    2.366874    4.054617
H     -4.808678    2.649549    2.804692
H     -3.862936    4.041079    3.463066
