74

C     -7.020643   -3.640748    0.815944
C     -5.774875   -3.475702   -0.053684
C     -4.717028   -2.567802    0.599563
C     -5.019464   -1.066589    0.430299
C     -4.687682   -0.540244   -0.985660
C     -3.439254    0.360506   -1.024764
C     -2.121225   -0.382166   -0.712893
C     -0.978834    0.598830   -0.609260
O     -0.736784    1.343054   -1.550305
C     -0.161841    0.668667    0.662939
C      1.238519    1.317023    0.506249
C      1.184304    2.858104    0.408609
C      0.709790    3.537603    1.705545
C      0.907418    5.059332    1.633170
C      0.251726    5.794778    2.813720
C      0.982043    5.561709    4.136179
O      1.855486    0.825239   -0.670166
Si     3.077937   -0.371193   -0.355145
C      4.564450    0.458985    0.427128
C      2.459944   -1.710389    0.805433
C      3.549232   -1.141054   -2.029043
C      2.330308   -1.889483   -2.598940
C      4.720154   -2.122542   -1.847371
C      3.962206   -0.022731   -3.002721
C     -1.789561   -1.415002   -1.756201
O     -1.417546   -2.564951   -1.395111
O     -1.837736   -1.077898   -3.113648
C     -1.479958   -1.995874   -4.138065
H     -7.519329   -2.667002    0.988727
H     -7.739626   -4.313318    0.304406
H     -6.753465   -4.092496    1.794216
H     -5.330048   -4.483379   -0.211883
H     -6.070056   -3.085680   -1.050462
H     -4.642303   -2.807328    1.682606
H     -3.725431   -2.797226    0.158421
H     -6.091361   -0.873839    0.650076
H     -4.451937   -0.498615    1.199969
H     -5.548176    0.076428   -1.332688
H     -4.582090   -1.366717   -1.723762
H     -3.578742    1.190130   -0.295864
H     -3.374249    0.827675   -2.032586
H     -2.231987   -0.892827    0.269806
H     -0.757938    1.177212    1.445656
H     -0.014733   -0.368029    1.029088
H      1.817392    1.091492    1.432533
H      2.211809    3.218252    0.180336
H      0.532844    3.172876   -0.432362
H      1.284716    3.130805    2.565043
H     -0.369729    3.328172    1.861726
H      0.445161    5.438680    0.694842
H      1.993251    5.299057    1.595982
H     -0.810547    5.483554    2.915028
H      0.259976    6.884930    2.599645
H      0.940584    4.493692    4.425836
H      0.492932    6.154673    4.936568
H      2.042069    5.883150    4.055657
H      4.971897    1.225190   -0.265268
H      5.342306   -0.300193    0.645879
H      4.262372    0.949942    1.375219
H      3.238331   -2.489019    0.923164
H      2.239666   -1.273800    1.799837
H      1.538717   -2.168725    0.393591
H      2.031482   -2.726983   -1.934378
H      2.568682   -2.317274   -3.597200
H      1.462550   -1.201629   -2.711836
H      5.616675   -1.600654   -1.446271
H      4.447249   -2.940852   -1.147689
H      4.994977   -2.580714   -2.821757
H      4.207772   -0.448673   -3.998250
H      4.858276    0.517376   -2.629114
H      3.136534    0.711016   -3.136101
H     -0.421700   -2.305471   -4.019252
H     -2.139422   -2.888606   -4.095777
H     -1.602822   -1.505312   -5.125857
