71

C     -3.052840    1.120199   -1.283813
O     -4.010985    1.217055   -2.284190
C     -5.031373    2.000413   -1.668339
C     -5.010474    3.414201   -2.264470
C     -6.393025    1.343229   -1.929653
O     -4.814765    2.086717   -0.258525
C     -3.864361    1.099515   -0.035665
C     -2.952128    1.292979    1.183766
O     -2.356845    2.585524    1.149964
C     -2.642280    3.314035    2.327777
O     -1.971273    2.728645    3.429537
C     -2.200637    3.507870    4.583438
C     -1.855665    0.238786    1.107401
O     -1.217578   -0.053223    2.156459
C     -1.526350   -0.450830   -0.191560
C     -0.524273   -1.577431   -0.219960
O      0.646098   -1.166290    0.456255
Si     2.049174   -2.024795   -0.110351
C      1.586543   -3.779219   -0.586017
C      1.222291   -4.674191    0.437524
C      0.832850   -5.982810    0.127500
C      0.783907   -6.402798   -1.204925
C      1.128230   -5.515391   -2.229293
C      1.523138   -4.207525   -1.923513
C      3.212609   -2.172347    1.326284
C      3.103443   -1.294638    2.413628
C      3.998466   -1.389625    3.483984
C      5.004790   -2.358281    3.472513
C      5.123721   -3.228537    2.385626
C      4.231906   -3.134607    1.313080
C      2.899675   -0.922599   -1.426997
C      4.099083   -1.654728   -2.056784
C      1.891578   -0.511190   -2.516496
C      3.411411    0.360142   -0.732627
C     -2.181947   -0.096406   -1.320860
H     -2.395229    2.019539   -1.335613
H     -5.190631    3.371863   -3.361731
H     -4.019779    3.884861   -2.088505
H     -5.791482    4.049319   -1.790920
H     -6.411286    0.322191   -1.491590
H     -6.581577    1.256301   -3.022861
H     -7.202835    1.943147   -1.463431
H     -4.394566    0.119105    0.076878
H     -3.565694    1.089226    2.097500
H     -3.746326    3.366691    2.498768
H     -2.276952    4.353538    2.162654
H     -1.806568    4.542486    4.458326
H     -3.284553    3.534300    4.842395
H     -1.661499    3.041213    5.436641
H     -0.959989   -2.456781    0.302632
H     -0.337429   -1.876241   -1.278735
H      1.227578   -4.357642    1.478967
H      0.548611   -6.667024    0.919382
H      0.479584   -7.416244   -1.442465
H      1.073949   -5.835243   -3.260924
H      1.764409   -3.547370   -2.736512
H      2.334790   -0.534303    2.431089
H      3.910499   -0.712715    4.324267
H      5.692848   -2.433719    4.304812
H      5.908075   -3.976591    2.376486
H      4.336971   -3.811290    0.475666
H      4.581766   -1.012925   -2.824841
H      3.790048   -2.597554   -2.548770
H      4.858455   -1.903496   -1.287017
H      1.454826   -1.389269   -3.024900
H      2.387031    0.118285   -3.285821
H      1.064875    0.083419   -2.080470
H      4.200510    0.122094    0.007930
H      3.842682    1.066532   -1.475535
H      2.585102    0.882751   -0.203782
H     -2.015503   -0.609859   -2.260315
