48

C      0.489168    1.184174    1.232655
C      1.161847    2.104815    0.210908
C      0.220737    2.392884   -0.907008
O      0.172634    3.563413   -1.372941
C     -0.600403    1.296140   -1.477857
C     -1.268962    1.458729   -2.720028
O     -1.246323    2.716845   -3.333896
C     -1.950294    0.363352   -3.314185
C     -2.625333    0.483050   -4.680343
C     -2.537517   -0.801493   -5.522626
C     -4.083714    0.919982   -4.513378
C     -2.037904   -0.838826   -2.595440
C     -1.413579   -0.987422   -1.363876
C     -0.700942    0.069924   -0.769999
C     -0.020497   -0.153051    0.599488
C     -1.048107   -0.782867    1.583606
C      1.185349   -1.104284    0.396229
C      1.947175   -1.380888    1.698947
C      2.175629   -0.152244    2.550649
C      3.141416   -0.253417    3.670682
O      3.365284    0.740289    4.417247
O      3.807168   -1.462484    3.899198
C      4.743514   -1.635808    4.955841
C      1.446971    0.968281    2.383044
H     -0.387809    1.739191    1.639022
H      1.450779    3.059626    0.705299
H      2.084404    1.642262   -0.199684
H     -1.832970    2.986676   -4.110746
H     -2.098839    1.244329   -5.290039
H     -1.495251   -1.186102   -5.530401
H     -3.219055   -1.590302   -5.140959
H     -2.832544   -0.583601   -6.571760
H     -4.135880    1.884294   -3.964472
H     -4.657320    0.155283   -3.946690
H     -4.558256    1.060854   -5.508069
H     -2.587972   -1.683863   -2.984116
H     -1.486734   -1.950677   -0.879291
H     -0.679317   -0.760433    2.630749
H     -1.255064   -1.845656    1.341616
H     -2.005590   -0.219147    1.555624
H      1.889926   -0.668644   -0.345031
H      0.846285   -2.076681   -0.023152
H      2.925384   -1.839797    1.438430
H      1.383204   -2.125332    2.301397
H      4.249201   -1.458077    5.934476
H      5.131472   -2.674991    4.932269
H      5.592989   -0.931639    4.830299
H      1.604955    1.814972    3.040958
