48

C      0.379691   -0.788300   -3.157525
C     -1.015426   -0.260818   -2.854426
C     -1.001559    0.338304   -1.423554
C     -0.466589   -0.638788   -0.302836
C     -1.579500   -1.677103    0.004000
C     -0.171670    0.091256    1.019645
C     -0.879702    1.250267    1.384731
C     -0.662582    1.870646    2.608707
C      0.245678    1.344607    3.540998
C      0.437589    2.038213    4.888957
C      1.479608    3.154110    4.767124
C     -0.871443    2.581012    5.487996
C      1.004644    0.201417    3.176489
O      2.032677   -0.278595    3.996828
C      0.751645   -0.463092    1.948776
C      1.462932   -1.736108    1.611776
O      2.087353   -2.376863    2.499608
C      1.411096   -2.325612    0.231816
C      0.884456   -1.303392   -0.781114
C      0.718280   -1.907855   -2.184449
C      1.896066   -2.613960   -2.870890
O      1.580506   -2.485394   -4.256348
C      0.658688   -1.465885   -4.438476
O      0.210903   -1.119388   -5.562664
H      1.112273    0.048051   -3.073296
H     -1.278022    0.535021   -3.584244
H     -1.774408   -1.068525   -2.937057
H     -2.039470    0.664288   -1.196981
H     -0.365996    1.251891   -1.440108
H     -1.856295   -2.277136   -0.883963
H     -1.283273   -2.371156    0.817311
H     -2.500233   -1.156886    0.346313
H     -1.620954    1.688994    0.734259
H     -1.222964    2.769680    2.822259
H      0.796263    1.303559    5.637953
H      1.657412    3.622830    5.758550
H      2.443511    2.741545    4.400429
H      1.133119    3.935567    4.057003
H     -1.220695    3.490767    4.956141
H     -0.711694    2.855791    6.552841
H     -1.664413    1.803748    5.448315
H      2.415107    0.220856    4.787284
H      2.438168   -2.634879   -0.060232
H      0.777073   -3.237389    0.240680
H      1.657407   -0.501440   -0.850200
H     -0.104356   -2.657596   -2.165128
H      2.851975   -2.089176   -2.653921
H      1.964026   -3.684099   -2.581102
