48

C     -1.001667    0.370998   -3.023931
C      0.434264    0.777854   -2.724509
C      0.846272    0.136686   -1.372106
C     -0.132858    0.446811   -0.171462
C      0.111439    1.914111    0.278336
C      0.146965   -0.428769    1.066004
C      1.450449   -0.885297    1.341192
C      1.737225   -1.585776    2.505308
C      0.756109   -1.791188    3.482800
C      1.118647   -2.508486    4.778252
C      1.681798   -3.910279    4.507066
C      2.098580   -1.672654    5.609673
C     -0.535664   -1.259751    3.280603
O     -1.441818   -1.313731    4.344796
C     -0.874320   -0.649080    2.038799
C     -2.292327   -0.309057    1.696706
O     -3.251151   -0.764846    2.374818
C     -2.622148    0.501752    0.479513
C     -1.619422    0.177232   -0.629056
C     -1.921528    0.918469   -1.941524
C     -3.308724    0.819595   -2.592209
O     -3.034299    1.080643   -3.967928
C     -1.687235    0.879581   -4.227497
O     -1.163951    1.021700   -5.363430
H     -1.060685   -0.741436   -3.071934
H      1.101914    0.400808   -3.528887
H      0.534472    1.883946   -2.684232
H      0.905760   -0.965512   -1.514316
H      1.873167    0.495456   -1.146170
H     -0.502493    2.183359    1.162159
H     -0.088394    2.648535   -0.524633
H      1.173319    2.046521    0.579293
H      2.269621   -0.706465    0.662145
H      2.750366   -1.933229    2.660507
H      0.212532   -2.659242    5.402865
H      0.974137   -4.489132    3.875718
H      2.665110   -3.861189    3.994054
H      1.816707   -4.456044    5.465384
H      1.665785   -0.669362    5.811113
H      2.291642   -2.169515    6.584424
H      3.066317   -1.546211    5.079320
H     -2.222407   -0.680256    4.447833
H     -2.626927    1.582725    0.727928
H     -3.645878    0.237193    0.135080
H     -1.722345   -0.915126   -0.834845
H     -1.741074    2.007171   -1.800410
H     -3.725090   -0.205378   -2.481039
H     -4.013877    1.573782   -2.182601
