115

C     -5.301734    4.064903   -1.243036
C     -4.094000    4.000011   -2.171359
Si    -2.580480    3.331051   -1.277694
C     -1.144427    3.244833   -2.506381
C     -1.580654    2.708567   -3.867601
C     -2.217195    4.543182    0.117195
C     -0.728892    4.691919    0.392223
O     -3.046356    1.777092   -0.639041
C     -1.968999    0.961923   -0.203947
C     -1.702909   -0.098424   -1.296159
C     -0.831544   -1.233860   -0.844002
O     -0.036958   -1.718620   -1.633534
C     -0.975911   -1.855321    0.522427
C     -1.959006   -3.044916    0.477374
O     -1.413797   -4.076705   -0.309563
Si    -2.457499   -5.470335   -0.297735
C     -4.278953   -4.996162   -0.319190
C     -2.144046   -6.466752    1.260038
C     -2.044761   -6.505216   -1.841480
C     -2.413456   -5.699689   -3.100072
C     -0.535249   -6.810628   -1.861584
C     -2.837608   -7.823332   -1.823028
C     -1.317259   -0.794643    1.622899
C     -0.009338   -0.281671    2.324065
C      0.986301    0.489016    1.439756
O      2.276390    0.368870    1.990897
Si     3.471236    1.119093    0.968604
C      3.118368    2.953081    0.840934
C      2.705613    3.576255   -0.346637
C      2.525975    4.962068   -0.393333
C      2.722532    5.733232    0.751462
C      3.089221    5.118173    1.951427
C      3.277918    3.735064    1.999146
C      5.052767    1.002876    1.945374
C      5.224842   -0.026007    2.885349
C      6.426847   -0.137036    3.592623
C      7.461848    0.775600    3.364222
C      7.300434    1.796567    2.422432
C      6.104072    1.902958    1.704135
C      3.774804    0.094542   -0.642214
C      5.215653    0.329998   -1.137003
C      2.802231    0.439815   -1.797243
C      3.624324   -1.398446   -0.289645
C     -2.356982    0.313797    1.173877
C     -3.784427   -0.303233    1.054715
C     -2.438570    1.390436    2.253611
O     -1.570653    2.303164    2.309150
O     -3.440015    1.330418    3.231418
C     -3.542348    2.278361    4.285393
H     -6.186900    4.419599   -1.814910
H     -5.525518    3.055886   -0.829473
H     -5.111728    4.770211   -0.404776
H     -4.328120    3.335131   -3.027755
H     -3.858430    5.014197   -2.563642
H     -0.329127    2.618380   -2.090092
H     -0.742894    4.270732   -2.643110
H     -0.682948    2.527926   -4.497003
H     -2.224506    3.454123   -4.383546
H     -2.145290    1.757128   -3.767272
H     -2.624588    5.536721   -0.163541
H     -2.746443    4.205093    1.030537
H     -0.582335    5.282570    1.321629
H     -0.249245    5.235300   -0.450606
H     -0.241363    3.702315    0.523579
H     -1.029577    1.535569   -0.068077
H     -1.203785    0.396983   -2.149869
H     -2.652604   -0.513920   -1.687548
H      0.010291   -2.307031    0.780307
H     -2.136804   -3.403538    1.517512
H     -2.913973   -2.716086    0.032803
H     -4.534302   -4.476842    0.626514
H     -4.483511   -4.323373   -1.178825
H     -4.906182   -5.905527   -0.404722
H     -1.124207   -6.902312    1.231001
H     -2.895938   -7.280614    1.336357
H     -2.239124   -5.810305    2.149583
H     -1.880752   -4.721674   -3.110549
H     -3.506563   -5.505824   -3.137385
H     -2.131690   -6.260486   -4.018895
H      0.058480   -5.870767   -1.869681
H     -0.240312   -7.405744   -0.971906
H     -0.268175   -7.398154   -2.768714
H     -2.594103   -8.433575   -2.722687
H     -2.586612   -8.422238   -0.920617
H     -3.930593   -7.624280   -1.830336
H     -1.815799   -1.349143    2.448623
H      0.514375   -1.172315    2.738615
H     -0.255716    0.331093    3.217217
H      0.692773    1.558708    1.392938
H      0.968864    0.046279    0.434909
H      2.521194    3.012610   -1.238197
H      2.226240    5.436179   -1.320529
H      2.586569    6.805173    0.713216
H      3.235262    5.716011    2.841405
H      3.566206    3.276617    2.937216
H      4.436256   -0.746955    3.067307
H      6.555193   -0.930168    4.318535
H      8.392139    0.683607    3.909625
H      8.106173    2.497992    2.241115
H      5.999096    2.688995    0.965273
H      5.401286    1.416063   -1.301418
H      5.961611   -0.050683   -0.406778
H      5.388892   -0.204049   -2.098959
H      2.714601   -0.411464   -2.507023
H      3.179773    1.292985   -2.403901
H      1.784386    0.686546   -1.439196
H      2.583024   -1.629432    0.018683
H      4.306589   -1.681504    0.543053
H      3.875786   -2.032011   -1.167221
H     -4.560481    0.494065    1.052656
H     -4.005289   -0.984784    1.902047
H     -3.940607   -0.846538    0.107419
H     -4.462028    2.072705    4.874473
H     -2.652659    2.193619    4.948478
H     -3.602194    3.305934    3.868659
