47

C     -0.653323   -1.568159    2.031109
C     -1.875545   -1.429634    1.121716
C     -1.434222   -1.480064   -0.333593
C     -0.348030   -0.477917   -0.650032
C     -0.151071   -0.066723   -1.997182
O     -0.886366   -0.635176   -3.048313
C     -0.864026   -2.024711   -3.365976
C      0.782112    0.952894   -2.298383
C      0.992522    1.486952   -3.711959
C      1.585915    0.424376   -4.644678
C     -0.286359    2.102570   -4.295167
C      1.562553    1.484925   -1.265666
C      1.423371    1.036833    0.041246
C      0.481694    0.047477    0.381285
C      0.327242   -0.358136    1.863634
C      1.713744   -0.793010    2.412326
C     -0.196269    0.884483    2.654168
C     -0.522071    0.583794    4.125554
C     -1.548999   -0.539095    4.252970
C     -1.103453   -1.735159    3.465035
O     -1.171524   -2.850564    3.959309
H     -0.123420   -2.503319    1.732165
H     -2.583092   -2.268242    1.306323
H     -2.416077   -0.478734    1.318790
H     -2.330296   -1.280510   -0.960075
H     -1.057238   -2.501028   -0.558524
H     -1.044028   -2.145657   -4.453685
H      0.125124   -2.466739   -3.119230
H     -1.670626   -2.563289   -2.831449
H      1.737063    2.314101   -3.677663
H      0.850732   -0.369585   -4.881502
H      2.480529   -0.039059   -4.176450
H      1.900338    0.895987   -5.600191
H     -0.719371    2.832871   -3.578565
H     -0.047965    2.642142   -5.236657
H     -1.047739    1.331019   -4.527833
H      2.293404    2.258068   -1.469039
H      2.048783    1.492394    0.796296
H      2.186461   -1.529625    1.727022
H      1.623454   -1.274122    3.408881
H      2.402422    0.069342    2.527073
H     -1.110151    1.286295    2.164315
H      0.556947    1.701279    2.633505
H     -0.930699    1.501296    4.601423
H      0.404408    0.311819    4.675323
H     -2.532724   -0.194565    3.867904
H     -1.670287   -0.805439    5.325582
