34

C      1.462219    2.769693    0.100943
O      1.952444    3.794105   -0.700192
C      2.942354    2.882491   -0.275081
C      3.489911    2.498428    1.056639
O      4.250671    3.265201    1.704431
C      3.097672    1.132467    1.529050
N      3.694709    0.539595    2.518647
O      4.746124    1.108510    3.200473
C      1.931935    0.417535    0.825858
C      1.154066    1.298769   -0.225235
N     -0.288142    1.057547   -0.122624
C     -0.887497   -0.178067   -0.528470
O     -0.170921   -1.103072   -0.998463
O     -2.275105   -0.335007   -0.394220
C     -3.035886   -1.502344   -0.740020
C     -4.505871   -1.200307   -0.411021
C     -2.915088   -1.802555   -2.246410
C     -2.578704   -2.714644    0.093869
H      1.135563    3.158703    1.096919
H      3.303678    2.260678   -1.124982
H      5.181689    0.610144    3.966027
H      1.226843    0.075053    1.614857
H      2.323497   -0.489484    0.317806
H      1.470115    1.040338   -1.262555
H     -0.920523    1.814153    0.224909
H     -5.156307   -2.068064   -0.655666
H     -4.618792   -0.967522    0.669834
H     -4.857619   -0.320114   -0.991297
H     -3.603561   -2.625303   -2.537184
H     -1.885808   -2.114923   -2.516195
H     -3.172653   -0.898726   -2.839052
H     -2.596180   -2.463720    1.176098
H     -1.548999   -3.026409   -0.175097
H     -3.249766   -3.583565   -0.079630
