13

C     -0.704786   -1.186927   -0.205244
C     -0.275618    0.112304    0.401571
O     -0.961772    1.148912    0.195264
C      0.934536    0.199329    1.235289
C      1.790592   -0.831658    1.557064
O      2.735511   -0.332877    2.313709
C      2.485825    0.949214    2.460570
N      1.370813    1.337853    1.807409
H     -0.896910   -1.929797    0.597018
H      0.092614   -1.568239   -0.876923
H     -1.635251   -1.052765   -0.797003
H      1.719024   -1.868131    1.254798
H      3.104627    1.620593    3.040632
