31

C      1.365487    3.005869    2.871978
N      1.202124    1.819631    2.037749
C      0.075552    1.447502    1.381267
C      0.302847    0.286316    0.636836
C     -0.672014   -0.420678   -0.227539
C     -1.638721    0.267419   -0.859521
C     -2.669457   -0.424743   -1.710890
C     -2.087906   -1.636867   -2.394146
O     -2.582635   -2.038831   -3.435801
C     -0.914046   -2.371487   -1.795752
C     -0.653996   -1.928327   -0.348933
C      1.632685   -0.021322    0.860724
N      2.395872   -1.007554    0.325725
C      3.718410   -1.082115    0.662253
C      4.289525   -0.134739    1.541181
C      3.493791    0.895315    2.071510
C      2.149071    0.922577    1.703702
H      0.379069    3.470198    3.085145
H      2.006620    3.744700    2.347141
H      1.839701    2.725911    3.836115
H     -0.862142    1.985743    1.439041
H     -1.687997    1.346539   -0.778448
H     -3.519298   -0.743620   -1.071404
H     -3.048032    0.291786   -2.471214
H     -0.012533   -2.173969   -2.414894
H     -1.114740   -3.464591   -1.806708
H     -1.451321   -2.340828    0.307116
H      0.305143   -2.362353   -0.005429
H      4.332704   -1.869180    0.246016
H      5.338843   -0.196549    1.798483
H      3.916354    1.640335    2.732791
