37

C      4.903200   -0.238282    2.204558
C      4.544387    1.130701    2.700172
O      5.327081    1.698853    3.509704
C      3.303266    1.825051    2.263397
C      2.413045    1.237930    1.345599
C      1.247494    1.912626    0.945090
C      0.304114    1.295590   -0.021867
C     -0.300045    2.078410   -1.034796
C     -1.190850    1.500820   -1.952898
C     -1.480745    0.135551   -1.839143
C     -0.886816   -0.629463   -0.872459
C      0.003703   -0.081733    0.050890
C     -1.314482   -2.049320   -0.983774
C     -2.260017   -2.043317   -2.206557
N     -2.331452   -0.652781   -2.665276
C     -3.210453   -0.196054   -3.711004
C     -3.896328   -1.176347   -4.611003
O     -3.448061    1.031902   -3.857510
C      0.995296    3.184581    1.480962
N      1.861755    3.739373    2.366543
C      2.992448    3.100678    2.763645
H      4.101888   -0.958553    2.472088
H      5.035551   -0.217328    1.102568
H      5.853072   -0.583433    2.665850
H      2.629690    0.265844    0.923576
H     -0.064389    3.130865   -1.129980
H     -1.615977    2.114773   -2.731833
H      0.440152   -0.713479    0.814256
H     -1.853447   -2.361223   -0.063444
H     -0.435229   -2.705136   -1.161589
H     -3.271083   -2.400555   -1.913713
H     -1.851429   -2.688298   -3.014142
H     -4.407590   -0.649266   -5.444534
H     -3.151262   -1.877253   -5.041439
H     -4.650921   -1.748909   -4.032805
H      0.101114    3.731086    1.211107
H      3.646281    3.592807    3.471803
