37

C      2.491067    2.815274    4.469950
C      1.309591    2.031394    4.957942
O      0.903745    2.230297    6.135431
C      0.613932    1.038555    4.095635
C      1.019477    0.800056    2.769687
C      0.346542   -0.140556    1.971967
C      0.774406   -0.395316    0.572773
C     -0.185453   -0.597540   -0.448262
C      0.215525   -0.841924   -1.770837
C      1.583083   -0.854727   -2.065866
C      2.516037   -0.695817   -1.077838
C      2.146412   -0.457329    0.245881
C      3.891746   -0.872064   -1.616830
C      3.651344   -1.216665   -3.104952
N      2.205063   -1.131424   -3.315054
C      1.600950   -1.193511   -4.618265
C      0.382876   -0.396696   -4.965573
O      2.128022   -1.912066   -5.509252
C     -0.738128   -0.834268    2.529741
N     -1.118521   -0.595648    3.810830
C     -0.479482    0.310787    4.594473
H      2.195504    3.441232    3.602104
H      2.873456    3.483460    5.270875
H      3.306367    2.123064    4.172303
H      1.844932    1.355285    2.344838
H     -1.243945   -0.561020   -0.224044
H     -0.531577   -1.034058   -2.524918
H      2.910691   -0.351527    1.005582
H      4.410476   -1.703649   -1.093231
H      4.467033    0.072944   -1.513420
H      4.004086   -2.246707   -3.328739
H      4.175982   -0.488698   -3.761277
H     -0.520655   -1.034799   -4.879489
H      0.459316   -0.031727   -6.011567
H      0.291158    0.487447   -4.300958
H     -1.272523   -1.579759    1.955662
H     -0.828088    0.459253    5.608183
