44

C     -4.422661    2.055011    0.347003
O     -3.123511    2.464625    0.763629
C     -2.002162    2.314825   -0.057451
C     -1.831281    3.180697   -1.153686
C     -2.769296    4.328396   -1.412854
C     -0.798444    2.946311   -2.055119
C      0.110249    1.918267   -1.843136
C      0.058988    1.100376   -0.686714
C      1.136790   -0.025213   -0.460753
C      2.399507    0.253285   -1.338850
C      1.632730   -0.009156    1.028448
C      1.129706   -1.269766    1.730985
C      0.397941   -2.026679    0.690782
O     -0.231861   -3.041789    0.950567
C      0.551528   -1.491347   -0.698442
C     -0.805356   -1.520767   -1.446772
C      1.512904   -2.461845   -1.434848
C     -1.043951    1.295123    0.205517
O     -1.164794    0.433558    1.311102
C     -2.036768    0.579390    2.427837
H     -4.773198    2.662131   -0.510753
H     -4.407581    0.983200    0.056229
H     -5.132022    2.188145    1.189123
H     -3.223222    4.698235   -0.469584
H     -2.222886    5.180174   -1.871485
H     -3.570131    4.005613   -2.110081
H     -0.691794    3.568673   -2.935901
H      0.861043    1.796932   -2.606271
H      3.253149   -0.402245   -1.066506
H      2.194874    0.084545   -2.416077
H      2.749217    1.298790   -1.194667
H      2.742792    0.000063    1.110453
H      1.301541    0.900863    1.574228
H      0.464634   -1.021544    2.583156
H      1.978865   -1.881921    2.104943
H     -0.719434   -0.987373   -2.417434
H     -1.120317   -2.565864   -1.657100
H     -1.619311   -1.062666   -0.850167
H      1.087142   -3.488857   -1.464806
H      1.673788   -2.147098   -2.487024
H      2.491847   -2.534948   -0.914673
H     -3.081817    0.357731    2.133213
H     -1.944826    1.597284    2.861777
H     -1.748383   -0.154869    3.206869
