42

C      1.401188   -2.319565   -1.965372
O      1.814205   -1.125818   -1.336644
C      1.402467   -1.120109    0.016478
O      2.289460   -1.935347    0.770486
C      1.651508   -2.421853    1.932893
C      1.441519    0.323844    0.503611
C      2.615473    0.805571    1.120350
C      2.684581    2.106743    1.612128
C      1.590006    2.955097    1.493529
C      0.431849    2.519063    0.852147
C      0.349201    1.221832    0.299701
C     -0.925463    0.778887   -0.427764
C     -1.634032    1.884077   -1.241772
C     -0.729357    2.492993   -2.227284
N     -0.016192    2.972790   -3.002347
C     -1.888987    0.172323    0.567205
O     -2.228560    0.847870    1.577679
C     -2.424348   -1.201012    0.405568
C     -2.665305   -1.748355   -0.868842
C     -3.152039   -3.052946   -0.997024
C     -3.407530   -3.821373    0.140742
C     -3.181215   -3.285429    1.410028
C     -2.696407   -1.980852    1.543992
H      1.784288   -3.217512   -1.431529
H      1.814882   -2.338313   -2.994004
H      0.292524   -2.362178   -2.047438
H      0.354376   -1.496579    0.106125
H      0.854209   -3.150973    1.668014
H      2.402458   -2.953195    2.552643
H      1.230110   -1.594208    2.547147
H      3.483601    0.169636    1.236174
H      3.587404    2.454059    2.097887
H      1.640208    3.959047    1.894789
H     -0.395540    3.209525    0.788851
H     -0.638741    0.018359   -1.181827
H     -2.487510    1.437581   -1.795581
H     -2.054188    2.673741   -0.586091
H     -2.497166   -1.168377   -1.766445
H     -3.333336   -3.468119   -1.979895
H     -3.782624   -4.831611    0.038544
H     -3.378385   -3.882188    2.291124
H     -2.517014   -1.587011    2.536504
