23

O      2.312758   -0.228506    1.537364
C      1.403743   -0.631973    0.761285
C      1.609758   -1.948260    0.060338
C      2.225827   -1.733262   -1.328879
C      2.424650   -3.053084   -2.077046
Cl     0.861833   -3.753377   -2.578895
C      0.195257    0.214224    0.547753
C     -0.783349   -0.116004   -0.413728
C     -1.906117    0.697901   -0.593501
C     -2.070166    1.848870    0.178386
C     -1.110604    2.190450    1.132126
C      0.014691    1.381666    1.316862
H      2.296440   -2.578195    0.667757
H      0.649484   -2.500489   -0.006506
H      3.216937   -1.242737   -1.210708
H      1.585958   -1.059724   -1.938921
H      3.028114   -2.866822   -2.990417
H      2.971062   -3.782564   -1.441966
H     -0.689731   -0.993417   -1.037267
H     -2.649914    0.435771   -1.334963
H     -2.940369    2.476676    0.036588
H     -1.238261    3.083589    1.730154
H      0.741687    1.670463    2.065562
