23

O     -0.146603    1.375352   -1.085443
C     -0.431155    0.233113   -0.631830
C      0.312625   -0.950734   -1.190620
C     -0.461167   -1.576449   -2.359248
C      0.232712   -2.827846   -2.901973
Cl     1.754864   -2.416893   -3.737756
C     -1.498986    0.101635    0.399876
C     -1.969998   -1.158113    0.826638
C     -2.974518   -1.250474    1.795084
C     -3.523386   -0.093809    2.350349
C     -3.070193    1.159665    1.937506
C     -2.066599    1.259497    0.969330
H      0.500825   -1.700678   -0.393722
H      1.308730   -0.610596   -1.548295
H     -0.573937   -0.832590   -3.178302
H     -1.479889   -1.862676   -2.019620
H      0.443574   -3.543136   -2.078613
H     -0.437561   -3.327834   -3.632639
H     -1.578206   -2.077054    0.415081
H     -3.329374   -2.222094    2.114058
H     -4.300839   -0.168908    3.099637
H     -3.496728    2.056432    2.368211
H     -1.733140    2.245259    0.670051
