20

C      0.707769   -2.113683    1.473892
C      0.597651   -0.624275    1.364416
O      0.753262    0.074987    2.401401
C      0.272973    0.042361    0.082165
C      0.968208   -0.231747   -1.125514
C      2.138191   -1.178537   -1.179570
C      0.562948    0.406684   -2.311385
C     -0.482722    1.331046   -2.300339
C     -1.138366    1.630175   -1.107418
C     -0.762602    0.993257    0.076287
H      0.236903   -2.455223    2.419702
H      1.775647   -2.414525    1.479579
H      0.183639   -2.608508    0.629379
H      1.774078   -2.225935   -1.211818
H      2.759116   -0.998448   -2.083049
H      2.795858   -1.033715   -0.297239
H      1.066675    0.199033   -3.247566
H     -0.780368    1.821770   -3.218061
H     -1.944877    2.352043   -1.100543
H     -1.296412    1.228133    0.989440
