44

C      0.051220   -1.304178   -1.063029
O      0.589589   -0.211059   -0.323651
C     -0.025254    0.306532    0.823849
O     -1.064795   -0.243055    1.285425
C      0.521530    1.572301    1.459109
O      1.675034    1.955126    0.750576
C      0.897627    1.339613    2.965389
Br    -0.634058    0.866199    4.085873
C      2.109008    0.406868    3.223330
C      1.993722   -0.985949    2.652036
C      1.165135   -1.943553    3.254562
C      1.023061   -3.212790    2.692023
C      1.721403   -3.556163    1.530989
O      1.512773   -4.827652    0.981389
C      2.112408   -5.291361   -0.224111
C      2.594798   -2.617550    0.952611
C      2.729470   -1.344337    1.510963
C     -0.521911    2.683947    1.317866
O     -0.581492    3.597096    2.185499
C     -1.416062    2.786633    0.142388
C     -2.779099    3.074160    0.314584
C     -3.634413    3.149666   -0.793986
C     -3.133777    2.956408   -2.079401
C     -1.774245    2.684947   -2.266284
C     -0.917258    2.604754   -1.161340
H      0.765950   -1.585046   -1.867741
H     -0.108663   -2.175295   -0.396074
H     -0.916416   -1.009475   -1.523624
H      2.013923    2.799295    1.151195
H      1.215858    2.324056    3.375264
H      3.021119    0.897541    2.825020
H      2.268600    0.325691    4.316746
H      0.622156   -1.710514    4.155174
H      0.359966   -3.931681    3.155764
H      3.216412   -5.342583   -0.103781
H      1.730855   -6.306555   -0.448560
H      1.848638   -4.617491   -1.067692
H      3.157088   -2.853667    0.059062
H      3.388828   -0.627430    1.031700
H     -3.184613    3.215859    1.308558
H     -4.688001    3.361221   -0.652434
H     -3.797564    3.017998   -2.935377
H     -1.381776    2.546494   -3.266899
H      0.137650    2.417992   -1.327501
