51

C      1.166017    1.121995    0.301728
C      1.717707    2.488867   -0.082176
O      2.321883    3.084604    1.064646
C      1.753375    2.985058    2.342618
C      0.676703    2.104068    2.586760
C      0.022959    2.169091    3.830356
C      0.523668    2.979798    4.867555
O     -0.082175    3.028986    6.133468
C     -1.231079    2.276457    6.509738
C      1.657870    3.773182    4.643476
O      2.144464    4.555671    5.702845
C      3.281462    5.408904    5.619893
C      2.261071    3.778693    3.373186
C      0.128923    1.260888    1.439317
C     -0.318788   -0.149701    1.782753
O     -0.407467   -0.556754    2.972467
C     -0.642560   -1.054152    0.657303
C     -1.385326   -2.243535    0.837783
C     -1.711204   -3.045856   -0.268973
C     -1.284741   -2.638984   -1.532529
C     -0.559728   -1.496138   -1.716338
C     -0.206116   -0.686083   -0.637470
O      0.570500    0.466977   -0.820837
C     -0.238145   -1.323478   -3.157847
C     -0.902823   -2.574848   -3.803520
C     -1.939543   -2.204573   -4.846245
C     -1.706871   -2.532627   -6.296875
C     -3.073482   -1.579528   -4.490785
O     -1.513013   -3.289331   -2.725702
H      2.018347    0.498387    0.658543
H      0.897158    3.142080   -0.450582
H      2.478246    2.383692   -0.884261
H     -0.884028    1.604089    3.984561
H     -1.023675    1.189548    6.415521
H     -1.480011    2.499915    7.567288
H     -2.097132    2.558174    5.874286
H      3.111341    6.198761    4.858025
H      3.442775    5.894314    6.604132
H      4.185329    4.817038    5.362980
H      3.110266    4.415287    3.165140
H     -0.757959    1.800294    1.038500
H     -1.723147   -2.537876    1.823345
H     -2.285005   -3.954821   -0.144957
H     -0.661009   -0.365804   -3.532126
H      0.862905   -1.337480   -3.307309
H     -0.112010   -3.218095   -4.246942
H     -1.721368   -1.599914   -6.899615
H     -2.505453   -3.213282   -6.660589
H     -0.726137   -3.029248   -6.449699
H     -3.270141   -1.324940   -3.453718
H     -3.817928   -1.312329   -5.234997
