51

C      0.558587    0.204720    0.901598
C      0.434021    1.244479    2.007702
O      0.296317    0.575758    3.260299
C     -0.486882   -0.578231    3.406624
C     -0.993792   -1.254463    2.274978
C     -1.919474   -2.294891    2.471677
C     -2.217541   -2.760567    3.767050
O     -3.102826   -3.827601    3.989920
C     -3.774282   -4.549189    2.962133
C     -1.625057   -2.146372    4.879608
O     -1.925966   -2.646462    6.156594
C     -1.402597   -2.121935    7.372582
C     -0.768812   -1.046840    4.691357
C     -0.685772   -0.711873    0.882735
C     -0.442800   -1.738250   -0.210768
O     -0.654549   -2.968779   -0.037941
C      0.072128   -1.243348   -1.506647
C      0.009962   -2.019588   -2.686700
C      0.466372   -1.488010   -3.904894
C      0.976266   -0.190361   -3.913415
C      1.048470    0.564333   -2.777520
C      0.618251    0.061373   -1.549902
O      0.726187    0.822139   -0.376908
C      1.638086    1.893889   -3.086764
C      1.915283    1.792737   -4.614798
C      1.183720    2.864325   -5.397379
C     -0.318278    2.836146   -5.512133
C      1.863655    3.875918   -5.956908
O      1.459895    0.495597   -5.006205
H      1.463080   -0.411491    1.113379
H     -0.456138    1.886157    1.830074
H      1.338868    1.887510    2.032948
H     -2.420356   -2.729168    1.619540
H     -4.396482   -5.342865    3.423962
H     -4.436991   -3.868041    2.387639
H     -3.034879   -5.026388    2.284754
H     -1.719410   -1.065312    7.500122
H     -1.796559   -2.715644    8.222617
H     -0.294345   -2.192264    7.373334
H     -0.335062   -0.530415    5.536810
H     -1.563550   -0.101782    0.573700
H     -0.403578   -3.019908   -2.666939
H      0.417459   -2.069151   -4.816336
H      0.916293    2.699983   -2.830686
H      2.583674    2.034125   -2.520152
H      3.012661    1.845113   -4.793668
H     -0.746730    3.765856   -5.081662
H     -0.747903    1.970981   -4.965577
H     -0.611682    2.759091   -6.580278
H      1.344876    4.657303   -6.504696
H      2.944562    3.939217   -5.875775
