49

C      1.725051    4.942406    2.446848
C      2.203052    5.795682    3.605927
C      0.969764    6.644666    3.798848
O      0.954221    7.663635    4.470402
C     -0.242095    6.107043    3.076758
C      0.270880    4.716770    2.753967
C     -0.163950    3.839322    1.601165
N      1.026815    2.996376    1.391279
C      1.051130    1.831469    0.534712
C      2.069720    0.860380    0.640955
F      3.042580    0.958701    1.580298
C      2.076364   -0.254885   -0.203190
C      1.075907   -0.428777   -1.172899
N      1.073126   -1.582329   -2.037688
C     -0.117014   -2.243038   -2.565227
C      0.406636   -3.507968   -3.306614
C     -0.099550   -4.813947   -2.679382
N     -1.553107   -4.922109   -2.796394
C     -2.210138   -5.214830   -4.036793
C     -3.701615   -5.274668   -4.092597
O     -1.537234   -5.451935   -5.076379
O      1.824975   -3.444700   -3.200686
C      2.189552   -2.333903   -2.477353
O      3.388481   -2.000517   -2.286131
C      0.050771    0.524174   -1.264149
C      0.039792    1.640245   -0.424704
C      2.197080    3.548122    2.097145
H      1.823549    5.559568    1.516768
H      3.082312    6.410084    3.316576
H      2.410059    5.188676    4.513584
H     -0.449327    6.698941    2.159210
H     -1.129894    6.063043    3.743261
H      0.172062    4.100759    3.684643
H     -0.377933    4.443076    0.692202
H     -1.042936    3.221935    1.887049
H      2.850548   -0.997836   -0.071359
H     -0.633768   -1.573367   -3.285518
H     -0.808164   -2.493684   -1.731194
H      0.125887   -3.464813   -4.381177
H      0.187254   -4.841563   -1.605104
H      0.380837   -5.684083   -3.177152
H     -2.130474   -4.827617   -1.930381
H     -4.057439   -6.165308   -3.534187
H     -4.129333   -4.359700   -3.632145
H     -4.050866   -5.342521   -5.144756
H     -0.738306    0.415724   -1.996037
H     -0.759510    2.359912   -0.538425
H      2.413138    2.956499    3.013320
H      3.083296    3.594016    1.427790
