48

C     -1.626437   -3.884030   -2.799358
C     -2.502173   -4.590063   -3.818636
C     -2.835489   -5.829966   -3.022404
O     -3.294068   -6.845302   -3.520529
C     -2.515133   -5.698628   -1.550821
C     -2.297520   -4.198360   -1.486644
C     -1.436190   -3.448856   -0.492443
N     -1.099875   -2.239577   -1.258852
C     -0.610006   -1.025943   -0.675874
C     -1.378347   -0.325850    0.267701
F     -2.605571   -0.777020    0.630274
C     -0.895244    0.862475    0.823827
C      0.360644    1.366830    0.446314
N      0.876659    2.572211    1.036989
C      2.245740    2.753025    1.507659
C      2.175347    3.949495    2.499980
C      2.390565    3.520834    3.962553
N      1.370083    2.567180    4.398937
C      0.128839    2.852474    4.825848
C     -0.493638    1.644662    5.048453
N      0.382303    0.663472    4.748576
N      1.503212    1.250940    4.355173
O      0.867842    4.493165    2.338299
C      0.127118    3.670713    1.521566
O     -1.075132    3.892886    1.220111
C      1.130504    0.657774   -0.489381
C      0.642610   -0.523696   -1.055487
C     -1.387875   -2.391328   -2.692593
H     -0.616894   -4.370597   -2.833624
H     -1.930283   -4.834652   -4.740884
H     -3.422424   -4.008996   -4.047760
H     -3.373088   -6.007668   -0.914887
H     -1.592500   -6.267031   -1.298349
H     -3.310183   -3.717194   -1.455376
H     -0.511833   -4.014105   -0.240274
H     -2.013765   -3.207877    0.427326
H     -1.493930    1.374400    1.565822
H      2.898362    3.011558    0.646596
H      2.623495    1.821640    1.981466
H      2.931366    4.718650    2.228056
H      3.399353    3.065333    4.073950
H      2.356592    4.421678    4.612867
H     -0.290817    3.845444    4.938452
H     -1.507937    1.485970    5.389143
H      2.105397    1.022567   -0.785877
H      1.245949   -1.055822   -1.779807
H     -0.518458   -2.084434   -3.313155
H     -2.295687   -1.808363   -2.965725
