48

C     -2.824305   -2.170707    2.474575
C     -3.552399   -3.417897    2.937713
C     -4.943834   -2.846160    3.064370
O     -5.853015   -3.414649    3.647313
C     -5.097594   -1.500530    2.397533
C     -3.822592   -1.495196    1.576299
C     -3.055383   -0.278579    1.108244
N     -1.687553   -0.811301    0.975022
C     -0.600904   -0.097706    0.341582
C      0.564906   -0.764902   -0.091518
F      0.700069   -2.107548    0.040637
C      1.604701   -0.052619   -0.697535
C      1.513965    1.335421   -0.881468
N      2.590359    2.056296   -1.512787
C      3.443139    1.543027   -2.581102
C      4.356136    2.736404   -2.986196
C      5.854902    2.440050   -2.815686
N      6.204288    2.227746   -1.411780
C      6.388036    1.049771   -0.792405
C      6.669304    1.342811    0.523012
N      6.648256    2.683855    0.664812
N      6.362638    3.195546   -0.523797
O      3.963908    3.817623   -2.146482
C      2.959298    3.407252   -1.302147
O      2.474333    4.141724   -0.401894
C      0.348018    1.997865   -0.468306
C     -0.694439    1.291173    0.135582
C     -1.561296   -2.118891    1.643147
H     -2.641270   -1.536814    3.380244
H     -3.163463   -3.769705    3.917176
H     -3.525405   -4.224903    2.174039
H     -5.111225   -0.685172    3.152653
H     -5.995999   -1.467272    1.744727
H     -4.006794   -2.129398    0.671160
H     -3.083879    0.533703    1.867124
H     -3.441414    0.076297    0.128209
H      2.487876   -0.590736   -1.014187
H      2.814146    1.229726   -3.442257
H      4.027754    0.671071   -2.223022
H      4.159093    3.012519   -4.045186
H      6.130407    1.546532   -3.417817
H      6.440143    3.299527   -3.207939
H      6.320000    0.072825   -1.253011
H      6.872449    0.638625    1.318312
H      0.226806    3.059584   -0.632983
H     -1.573809    1.839330    0.445502
H     -1.541472   -2.938778    0.892543
H     -0.663502   -2.148677    2.297930
