54

C      5.228548    0.251867   -4.011896
O      3.981085    0.939220   -4.037548
C      3.061383    0.959564   -2.976422
C      1.854880    1.653773   -3.149896
O      1.625128    2.285571   -4.382282
C      0.433329    2.987731   -4.723280
C      0.915052    1.695109   -2.100362
C      1.167693    1.041599   -0.878246
C      0.165735    1.071601    0.223623
N     -0.938650    1.748033    0.063381
C     -2.023445    1.977468    0.982568
C     -2.245835    1.406448    2.239651
N     -3.370320    1.971777    2.732112
C     -4.054775    1.761238    3.890835
C     -5.229603    2.492192    4.118544
C     -5.673126    3.409103    3.153000
C     -4.948397    3.591398    1.967343
C     -3.787391    2.840950    1.792228
N     -2.994420    2.877983    0.705411
C     -1.462973    0.333480    2.884994
O     -1.541869    0.140991    4.128344
C     -0.552282   -0.501549    2.041792
C      0.130530   -1.642249    2.821967
C      0.974839   -2.495738    1.908057
C      2.377602   -2.393292    1.927750
C      3.150601   -3.144317    1.035137
C      2.530615   -4.001423    0.118499
C      1.137248   -4.112331    0.095957
C      0.360949   -3.363208    0.986133
N      0.440228    0.380427    1.446437
C      2.381992    0.347066   -0.724155
C      3.317141    0.306888   -1.757887
H      5.059959   -0.838689   -3.881306
H      5.750552    0.414416   -4.977275
H      5.863834    0.649549   -3.190948
H      0.293722    3.859569   -4.048968
H      0.515901    3.356693   -5.766435
H     -0.443945    2.307434   -4.656969
H     -0.012471    2.234390   -2.234526
H     -3.722951    1.047809    4.627988
H     -5.793458    2.348468    5.030127
H     -6.580200    3.972728    3.323198
H     -5.285133    4.286345    1.210359
H     -1.169590   -0.959039    1.236786
H      0.750696   -1.220816    3.642414
H     -0.644643   -2.284717    3.292186
H      2.872572   -1.723694    2.622917
H      4.229964   -3.057100    1.048397
H      3.130392   -4.579274   -0.573706
H      0.656885   -4.774775   -0.616096
H     -0.718324   -3.451960    0.950996
H      1.303513    0.630196    1.981427
H      2.619599   -0.169975    0.196454
H      4.235839   -0.241317   -1.600604
