39

C     -0.018209    0.406700    0.494804
C      0.708733   -0.687837   -0.341176
C      0.456564   -2.058956    0.224964
O      1.194844   -2.987667   -0.065647
C     -0.703181   -2.278254    1.147562
C     -1.878444   -1.444958    0.640397
C     -1.583067    0.105358    0.602476
C     -2.110837    0.691341    1.940798
C     -2.413001    0.736165   -0.578865
C     -1.654101    1.749447   -1.434187
C     -0.814030    2.668956   -0.561070
C      0.372766    1.907221    0.096887
C      0.776823    2.700431    1.368583
C      1.578041    1.953843   -0.846660
O      1.412441    1.954237   -2.098755
O      2.876101    1.917268   -0.321528
C      4.036924    1.902357   -1.142987
H      0.400689    0.242922    1.514700
H      0.371895   -0.660811   -1.398803
H      1.807069   -0.526886   -0.307714
H     -0.988396   -3.353108    1.153863
H     -0.429409   -1.980076    2.181987
H     -2.775632   -1.677030    1.255373
H     -2.111696   -1.838031   -0.373679
H     -1.537951    0.293220    2.805459
H     -2.056736    1.794932    1.957422
H     -3.180198    0.429406    2.094639
H     -2.800121   -0.029950   -1.283064
H     -3.327858    1.235575   -0.188101
H     -2.384622    2.358118   -2.010593
H     -1.016551    1.217582   -2.171121
H     -0.443910    3.520075   -1.175465
H     -1.479713    3.128890    0.201226
H     -0.052474    2.760534    2.099552
H      1.635305    2.219151    1.885196
H      1.071230    3.739960    1.104329
H      4.069873    2.817652   -1.771092
H      4.031047    1.000922   -1.791757
H      4.939112    1.875458   -0.498258
