25

C     -1.974461   -2.121765   -2.393068
C     -0.584388   -2.169790   -3.016935
C      0.395171   -1.412167   -2.173015
O      1.097662   -2.030463   -1.328515
C      0.572615    0.035642   -2.367314
C      0.747007    0.924669   -1.381071
O      1.151466    2.237609   -1.634848
C      1.306540    2.870523   -0.407961
O      1.672900    4.066680   -0.269036
C      0.958058    1.955909    0.663124
C      0.588340    0.759998    0.080924
C      0.021947   -0.259479    0.857393
C     -0.068719   -0.070768    2.247759
C      0.359133    1.136359    2.835712
C      0.861904    2.174629    2.036030
H     -1.958744   -2.580303   -1.381063
H     -2.687336   -2.687582   -3.029052
H     -2.325513   -1.070501   -2.313302
H     -0.260413   -3.229143   -3.109475
H     -0.622686   -1.734468   -4.038908
H      0.622264    0.394283   -3.387843
H     -0.380425   -1.158908    0.418515
H     -0.492988   -0.849147    2.868638
H      0.270643    1.275528    3.905304
H      1.146000    3.123690    2.471782
