50

C     -4.447302   -2.231467   -1.687598
C     -3.611846   -1.450972   -0.717073
C     -4.155227   -0.343914   -0.048343
C     -3.382613    0.375208    0.868147
C     -2.061041   -0.008665    1.132723
S     -1.084856    0.914192    2.273846
O     -1.553163    2.342481    2.292087
O     -1.232335    0.346429    3.656463
N      0.580347    0.890623    1.783930
C      1.144732    1.776991    0.933793
C      2.451841    1.402248    0.645078
C      3.344264    2.038283   -0.383591
C      2.801643    1.832769   -1.804765
C      2.787270    0.353561   -2.219095
C      2.118076    0.184329   -3.553051
O      2.826833    0.093145   -4.590517
C      0.649360    0.159517   -3.681840
C     -0.273349    0.308249   -2.661175
C     -1.510009    0.225896   -3.262746
C     -1.270117    0.026935   -4.606668
O      0.024451   -0.006281   -4.825097
C      2.672199    0.231909    1.350006
C      3.775719   -0.622180    1.385771
C      3.679579   -1.789062    2.162517
C      2.492636   -2.084380    2.865473
C      1.389758   -1.215085    2.800634
C      1.514141   -0.051115    2.034768
C     -1.525803   -1.130090    0.483435
C     -2.297838   -1.850561   -0.431768
H     -3.806970   -2.727293   -2.448042
H     -5.152418   -1.559234   -2.221548
H     -5.025917   -3.004302   -1.139904
H     -5.175707   -0.034319   -0.240240
H     -3.816186    1.230825    1.369966
H      0.620955    2.617633    0.496837
H      3.397032    3.128396   -0.176271
H      4.377347    1.638028   -0.311777
H      3.443967    2.398949   -2.514377
H      1.777149    2.260732   -1.869328
H      2.250767   -0.264557   -1.468758
H      3.831864   -0.024025   -2.273055
H     -0.078605    0.467896   -1.609143
H     -2.474109    0.305119   -2.780330
H     -2.022827   -0.085485   -5.375923
H      4.678348   -0.405308    0.830672
H      4.518481   -2.470937    2.213793
H      2.426587   -2.992506    3.450369
H      0.474805   -1.463199    3.318471
H     -0.511942   -1.448548    0.676881
H     -1.867984   -2.713965   -0.924352
