29

C      0.335324    0.936805   -2.206359
C      1.697540    0.554612   -2.486232
C      1.403173   -0.771040   -1.860751
O      2.060402   -1.823373   -1.649455
N      0.031874   -0.306033   -1.545559
C     -1.007709   -0.631256   -0.582192
C     -0.555130   -1.771416    0.284791
O     -1.097689   -2.903711    0.163607
O      0.482140   -1.573204    1.201845
C      0.971510   -2.611841    2.040611
C     -1.320755    0.603311    0.250777
C     -0.747261    1.874359   -0.047602
C     -1.061282    2.976930    0.768288
C     -1.944318    2.839347    1.840549
C     -2.532657    1.604878    2.110508
C     -2.230243    0.496160    1.319175
C      0.154959    2.056525   -1.220854
O      0.716473    3.165469   -1.434549
H     -0.289035    1.068170   -3.118150
H      2.471444    1.110848   -1.912681
H      1.910975    0.457379   -3.572485
H     -1.925100   -0.922235   -1.138521
H      1.787810   -2.212306    2.676537
H      1.371063   -3.443067    1.421832
H      0.156420   -2.987871    2.694569
H     -0.634045    3.951915    0.569823
H     -2.181679    3.696243    2.457819
H     -3.225798    1.506301    2.935977
H     -2.700532   -0.453085    1.544696
