28

C     -2.871713   -1.576371    0.067429
O     -3.843441   -2.239459    0.516622
C     -2.328555   -1.698961   -1.318522
C     -1.148924   -0.684315   -1.355297
C      0.174057   -1.353478   -1.669763
C      0.867237   -1.021791   -2.846937
C      2.086448   -1.637466   -3.146745
C      2.623146   -2.590714   -2.277801
C      1.941062   -2.931803   -1.107436
C      0.721908   -2.319389   -0.803003
C     -1.144821   -0.069333    0.015916
C     -0.289596    0.927159    0.496477
C     -0.451509    1.376066    1.817506
C     -1.462112    0.831827    2.633185
C     -2.316775   -0.162212    2.130973
C     -2.132325   -0.590240    0.815379
H     -3.111164   -1.415916   -2.054819
H     -2.003335   -2.745249   -1.506915
H     -1.374921    0.115497   -2.095342
H      0.466112   -0.286388   -3.533126
H      2.615250   -1.375570   -4.054094
H      3.566875   -3.066013   -2.512126
H      2.356698   -3.671891   -0.435898
H      0.204390   -2.596801    0.106908
H      0.484868    1.342613   -0.135245
H      0.202599    2.143967    2.209481
H     -1.582156    1.182692    3.649886
H     -3.099022   -0.582693    2.749638
