53

C     -1.572715    0.592792   -0.735253
C     -1.795534   -0.950955   -0.888157
C     -0.541506   -1.799546   -1.091500
C      0.622023   -1.301759   -0.289482
C      1.512055   -2.241508    0.277841
C      2.680225   -1.774330    0.865013
C      2.988637   -0.434863    0.870106
C      2.147484    0.520088    0.311117
C      0.906352    0.095394   -0.239445
C     -0.068765    1.091858   -0.887416
C      0.291909    1.185665   -2.392596
C      0.107840    2.534064   -0.281463
C     -1.170340    3.368284   -0.320397
C     -2.207371    2.693721    0.525985
O     -2.937586    3.372689    1.234692
C     -2.332385    1.178360    0.518207
C     -1.746944    0.643672    1.852380
C     -3.813389    0.840797    0.407594
O     -4.367480    0.075280    1.245294
O     -4.555759    1.367289   -0.655414
C     -5.933864    1.073327   -0.848136
C      4.220818   -0.328383    1.474460
C      5.031931    0.771449    1.747649
C      6.263682    0.531649    2.383699
C      6.651601   -0.784079    2.724510
C      5.812079   -1.875938    2.433935
C      4.595284   -1.614313    1.806179
N      3.657989   -2.513179    1.434651
H     -2.111834    1.034450   -1.606773
H     -2.473098   -1.136961   -1.751086
H     -2.335290   -1.369107   -0.015131
H     -0.783713   -2.849507   -0.815349
H     -0.259996   -1.819256   -2.163674
H      1.314785   -3.305420    0.231602
H      2.463910    1.553365    0.296717
H      1.366404    1.439785   -2.524407
H     -0.309274    1.974120   -2.893569
H      0.100455    0.236569   -2.927494
H      0.912127    3.094244   -0.808378
H      0.422855    2.486481    0.783141
H     -0.955529    4.384158    0.078141
H     -1.541856    3.473108   -1.361840
H     -2.277565    1.098977    2.716635
H     -1.849232   -0.456271    1.942181
H     -0.671712    0.885620    1.956713
H     -6.073389   -0.020586   -0.982768
H     -6.294536    1.596740   -1.757436
H     -6.522733    1.423163    0.026524
H      4.728757    1.775592    1.481125
H      6.920090    1.361454    2.611763
H      7.603021   -0.953968    3.211297
H      6.104018   -2.886478    2.689353
H      3.688628   -3.550812    1.550265
