49

C      0.894070    3.039362    1.463559
C      1.679929    3.553950    2.669659
C      1.143002    4.683136    3.497649
O      2.747341    3.048888    2.983903
C     -0.490512    2.346572    1.867149
N     -0.532798    0.867981    1.555064
C     -1.873412    0.306659    1.759445
C     -2.477161    0.049006    0.394230
C     -1.288757   -0.221849   -0.523253
O     -1.515400    0.275199   -1.819876
C     -0.892913   -1.671227   -0.558125
C     -1.653193   -2.755993   -1.006300
C     -1.096331   -4.041512   -0.942682
C      0.200798   -4.225995   -0.432474
C      0.951775   -3.125422    0.008462
C      0.383765   -1.847486   -0.077760
N      0.974521   -0.612932    0.314213
C      2.412363   -0.318803    0.335238
O      3.264266   -1.244157    0.288882
C      2.897288    1.152427    0.379946
C      1.656513    2.100765    0.479325
C      0.580409    1.639770   -0.549719
C      1.153062    1.384497   -1.931800
O      1.231231    0.216473   -2.404211
O      1.614703    2.474779   -2.674496
C      2.190813    2.332322   -3.966924
C     -0.068806    0.445381    0.182453
H      0.644041    3.952487    0.877597
H      0.171681    5.042645    3.097055
H      1.865286    5.526039    3.490549
H      0.992774    4.339557    4.542486
H     -0.677891    2.487075    2.953949
H     -1.317663    2.865347    1.331480
H     -2.534261    0.965469    2.366937
H     -1.770215   -0.659039    2.300275
H     -3.202500   -0.793150    0.421468
H     -3.007788    0.968140    0.060270
H     -2.318838   -0.185866   -2.177510
H     -2.654388   -2.610742   -1.390509
H     -1.669651   -4.894836   -1.280840
H      0.619993   -5.222122   -0.374618
H      1.936379   -3.284749    0.422016
H      3.658982    1.299196    1.188892
H      3.437281    1.371639   -0.565284
H      1.634729    1.521150    1.422977
H     -0.194781    2.421549   -0.718072
H      1.454631    1.877776   -4.663275
H      2.478521    3.332736   -4.350045
H      3.097900    1.693963   -3.909865
