27

C     -2.033768   -1.470903   -0.169505
C     -0.704581   -1.101192    0.516058
C     -0.719016   -1.644094    1.959009
C      0.464120   -1.718962   -0.284523
C      1.787218   -1.172814    0.177093
O      2.746981   -1.926183    0.260199
C      1.958426    0.315601    0.444725
C      2.704895    0.526466    1.775023
C      2.771678    0.932488   -0.705720
C      0.620075    1.035437    0.532605
C     -0.569867    0.409098    0.553311
H     -2.147930   -2.574910   -0.231143
H     -2.897860   -1.062846    0.398772
H     -2.070901   -1.057378   -1.200829
H     -1.561313   -1.201752    2.534051
H     -0.838317   -2.749054    1.959778
H      0.224652   -1.398150    2.488464
H      0.452096   -2.827835   -0.189946
H      0.358037   -1.473581   -1.364180
H      2.138280    0.077215    2.618125
H      2.836081    1.610687    1.983444
H      3.712887    0.059211    1.742434
H      2.238424    0.798656   -1.672225
H      2.926821    2.020844   -0.539815
H      3.769474    0.449033   -0.786556
H      0.625562    2.119855    0.607786
H     -1.466887    1.015453    0.649844
