23

C     -0.995202    2.372231   -2.866158
C     -1.082219    1.673309   -1.541595
O     -2.061399    1.858875   -0.834869
C      0.015054    0.759775   -1.062631
C     -0.471491   -0.691548   -1.010875
C      0.631516   -1.603259   -0.543856
C      0.817048   -1.846725    0.827142
C      1.862109   -2.667808    1.261807
C      2.734836   -3.243524    0.332808
Br     4.162906   -4.362792    0.928829
C      2.564081   -2.994043   -1.032747
C      1.519993   -2.173438   -1.470624
H     -1.863851    2.084052   -3.494476
H     -1.010375    3.470879   -2.707867
H     -0.064085    2.103121   -3.407138
H      0.337684    1.086349   -0.049880
H      0.896719    0.827644   -1.736488
H     -1.341807   -0.773718   -0.322747
H     -0.817254   -1.005519   -2.020742
H      0.154084   -1.399813    1.557694
H      1.994798   -2.853068    2.319974
H      3.241309   -3.432342   -1.754481
H      1.404767   -1.980981   -2.530176
