23

C     -2.005174    1.366920    1.358428
C     -0.872110    1.346545    0.377082
O     -1.117335    1.330513   -0.819493
C      0.559093    1.305496    0.845159
C      0.954222   -0.087515    1.352360
C      0.933768   -1.111577    0.246140
C      2.019060   -1.217861   -0.639207
C      1.987616   -2.146083   -1.684420
C      0.870584   -2.969617   -1.857851
Br     0.828398   -4.234664   -3.287929
C     -0.217403   -2.862632   -0.985602
C     -0.188833   -1.935848    0.060864
H     -2.637740    0.466155    1.213906
H     -1.626530    1.373509    2.402251
H     -2.621313    2.275947    1.196599
H      0.691155    2.041294    1.667356
H      1.238876    1.611310    0.019379
H      1.978324   -0.034126    1.781836
H      0.278171   -0.394904    2.180329
H      2.886629   -0.580532   -0.520573
H      2.829679   -2.222334   -2.360247
H     -1.086013   -3.494449   -1.119548
H     -1.042078   -1.857779    0.723257
