58

C      1.475227   -2.131049    0.700053
C      2.011476   -1.291668    1.887494
C      1.417105   -1.860918    3.170679
C      0.378952   -2.815236    2.721490
O     -0.360739   -3.388100    3.507995
C      0.321119   -3.030599    1.242281
C      0.589840   -4.517321    0.933594
C     -1.076030   -2.632860    0.684499
C     -1.270548   -1.112401    0.626095
C     -0.190030   -0.386591   -0.234216
C      1.035199   -1.294221   -0.532110
C      2.176225   -0.456458   -1.122632
C      1.726668    0.170851   -2.443733
C      0.443625    1.029927   -2.310166
C      0.750121    2.420875   -1.715037
C     -0.451164    3.388511   -1.859432
O     -0.500272    4.239364   -0.722266
C     -0.074651    5.552891   -1.034750
O      1.298870    5.579734   -1.376228
C      2.085466    5.464183   -0.210910
C     -1.798822    2.644105   -1.978150
C     -1.822181    1.379677   -1.112175
C     -0.738459    0.318880   -1.534701
C     -1.406385   -0.704105   -2.493872
H      2.318891   -2.778866    0.366024
H      3.121986   -1.341588    1.925076
H      1.736257   -0.221282    1.811145
H      2.189736   -2.399550    3.760510
H      0.960408   -1.056575    3.787302
H     -0.227200   -5.154722    1.335876
H      1.547992   -4.848932    1.390231
H      0.651756   -4.677293   -0.164396
H     -1.881031   -3.080456    1.308221
H     -1.208888   -3.040650   -0.341921
H     -1.232014   -0.719319    1.666316
H     -2.297992   -0.901611    0.267482
H      0.181215    0.437573    0.410767
H      0.753530   -2.042379   -1.303971
H      2.493678    0.340692   -0.416892
H      3.056129   -1.106977   -1.319120
H      2.557472    0.784532   -2.854794
H      1.547836   -0.640580   -3.182452
H      0.116668    1.219723   -3.358599
H      1.627827    2.871180   -2.228403
H      1.024197    2.313129   -0.644177
H     -0.324594    3.944344   -2.821246
H     -0.296998    6.220194   -0.170825
H     -0.669524    5.969461   -1.878026
H      1.959698    6.354442    0.444213
H      1.851538    4.533103    0.351333
H      3.152875    5.415527   -0.509203
H     -1.986099    2.362994   -3.037778
H     -2.628241    3.319144   -1.673216
H     -2.844927    0.944604   -1.153712
H     -1.674040    1.704591   -0.058394
H     -0.677416   -1.430984   -2.902418
H     -2.213417   -1.274372   -1.991100
H     -1.863681   -0.177415   -3.358752
