58

C     -2.102978   -0.170801   -2.018866
C     -3.309604    0.490347   -1.310077
C     -3.900228    1.511281   -2.274312
C     -2.846998    1.712501   -3.295566
O     -2.934175    2.571698   -4.160484
C     -1.685643    0.773753   -3.188473
C     -1.537651   -0.013583   -4.505843
C     -0.373386    1.562494   -2.901650
C     -0.254118    1.973422   -1.428930
C     -0.233452    0.748279   -0.468937
C     -0.913300   -0.508234   -1.080090
C     -1.286973   -1.515017    0.039356
C     -0.278628   -1.502127    1.212722
C      1.135557   -1.099944    0.735148
C      2.230780   -1.416155    1.786667
C      2.391844   -0.346110    2.870425
O      1.225830   -0.315969    3.677297
C      1.545374   -0.018891    5.022716
O      0.358584    0.166203    5.764736
C     -0.226756    1.405854    5.429851
C      2.635159    1.018100    2.213573
C      1.467690    1.409849    1.304720
C      1.174895    0.379196    0.167676
C      2.307859    0.446316   -0.894899
H     -2.474143   -1.134941   -2.437817
H     -4.072758   -0.271119   -1.037359
H     -3.006693    1.013436   -0.380278
H     -4.817539    1.113614   -2.759248
H     -4.126770    2.466123   -1.752485
H     -0.753214   -0.793770   -4.401659
H     -1.249564    0.666081   -5.336813
H     -2.493298   -0.512383   -4.778514
H      0.510073    0.944574   -3.168383
H     -0.321931    2.471847   -3.540096
H      0.627597    2.628315   -1.288093
H     -1.129158    2.615024   -1.182941
H     -0.892975    1.052441    0.373997
H     -0.164630   -1.015555   -1.728717
H     -1.326778   -2.535788   -0.400116
H     -2.294989   -1.295990    0.450275
H     -0.260963   -2.512460    1.676175
H     -0.629015   -0.786589    1.986923
H      1.356455   -1.800143   -0.103885
H      3.205698   -1.532414    1.263963
H      2.027670   -2.396935    2.269607
H      3.304287   -0.622265    3.453776
H      2.217462    0.868453    5.113257
H      2.082814   -0.884390    5.468271
H     -0.493391    1.452096    4.350771
H      0.440871    2.253308    5.701782
H     -1.165201    1.520961    6.009922
H      2.755319    1.794540    2.998760
H      3.583192    0.998049    1.634781
H      1.681453    2.409437    0.868503
H      0.573799    1.537719    1.953072
H      2.056984   -0.172397   -1.780625
H      3.262714    0.056359   -0.488013
H      2.508920    1.482264   -1.232971
