29

O      3.569293   -0.040108   -3.498212
C      3.715231   -0.029614   -2.247615
C      2.590013    0.059620   -1.298939
C      3.022439    0.051821    0.014299
C      2.130437    0.138384    1.079197
C      0.761492    0.226933    0.806554
C      0.293149    0.216515   -0.526693
O     -1.075897    0.321076   -0.817336
C     -2.116081   -0.196865   -0.031793
C     -1.956635   -1.362486    0.740671
C     -3.023814   -1.856335    1.497586
F     -2.864051   -2.978014    2.242279
C     -4.257751   -1.199934    1.480076
C     -4.428668   -0.052242    0.699084
Cl    -5.980670    0.764617    0.667784
C     -3.361500    0.442831   -0.059053
C      1.214976    0.148806   -1.591815
Br     0.558450    0.165968   -3.396202
S      4.749529   -0.058679    0.145149
O      5.181882   -1.320870    0.836765
O      5.343735    1.158819    0.795550
C      5.072356   -0.108737   -1.609875
F      5.698480   -1.292554   -1.954213
F      5.847904    0.970644   -1.991303
H      2.488903    0.144976    2.100400
H      0.068551    0.322690    1.632014
H     -1.016485   -1.898201    0.742349
H     -5.081521   -1.586496    2.066644
H     -3.495955    1.330041   -0.665129
