61

C      0.670762   -2.789972   -2.014660
C      0.221892   -4.172146   -1.510733
C     -1.236297   -4.030046   -1.068327
C     -1.644781   -2.595127   -1.398657
C     -2.764394   -2.063027   -0.494641
C     -0.335017   -1.788526   -1.401498
C      0.123323   -1.269866    0.008773
O     -0.559655   -0.046754    0.292362
C     -1.219307    0.235047    1.497549
O     -1.210732   -0.604842    2.439338
C     -1.906193    1.525456    1.714494
C     -2.096368    2.492883    0.790526
C     -1.630256    2.355396   -0.637179
C     -2.769215    3.754153    1.195353
C     -3.966909    3.724477    1.933563
C     -4.597709    4.914754    2.305107
C     -4.041902    6.144216    1.945172
C     -2.852861    6.185606    1.213509
C     -2.217200    4.997577    0.839835
C      1.684977   -1.080589    0.083748
C      2.154583   -0.674579    1.529307
C      3.565179   -1.198431    1.855956
C      2.113132    0.845335    1.801700
C      2.204096   -0.103774   -1.003272
C      2.418325   -1.038141   -2.111397
O      2.704515   -0.712621   -3.252563
C      2.133336   -2.423152   -1.652181
C      3.163633   -3.418593   -2.201202
O      2.230768   -2.347185   -0.249404
H      0.556099   -2.770765   -3.123019
H      0.833210   -4.508107   -0.644587
H      0.314002   -4.926168   -2.322998
H     -1.888900   -4.756916   -1.598077
H     -1.309114   -4.218093    0.025915
H     -2.038924   -2.587808   -2.442006
H     -3.695773   -2.639387   -0.680541
H     -2.966100   -0.995932   -0.726246
H     -2.507170   -2.167656    0.579050
H     -0.445212   -0.914743   -2.083589
H     -0.145963   -2.048571    0.756515
H     -2.264459    1.697765    2.723422
H     -0.520113    2.348484   -0.677959
H     -2.038958    1.426843   -1.088542
H     -1.991467    3.200367   -1.260552
H     -4.421470    2.780666    2.207614
H     -5.518190    4.884458    2.875563
H     -4.532171    7.064760    2.235219
H     -2.421355    7.138632    0.938241
H     -1.288945    5.048254    0.282137
H      1.472963   -1.157059    2.262937
H      3.873393   -0.865754    2.871275
H      4.308343   -0.824685    1.118000
H      3.578635   -2.308929    1.854398
H      1.210012    1.321748    1.382654
H      2.994270    1.356048    1.363715
H      2.118499    1.029195    2.896450
H      1.462673    0.680115   -1.267085
H      3.180324    0.351989   -0.739600
H      3.011566   -4.423673   -1.755373
H      3.073158   -3.500962   -3.306222
H      4.194029   -3.083816   -1.949380
