64

C      1.299209   -3.325270    0.076859
C      2.712638   -3.428754   -0.520202
C      3.474070   -2.176756   -0.076042
C      2.512976   -1.376684    0.803494
C      2.784775    0.132969    0.771132
C      1.101980   -1.823522    0.382585
C      0.490192   -1.035290   -0.832266
O     -0.102121    0.165577   -0.331644
C      0.164469    1.448697   -0.828941
O      0.763969    1.603844   -1.926805
C     -0.238306    2.631022   -0.057671
C     -0.773571    2.521869    1.163305
C     -1.128459    3.733095    1.986307
C     -2.652557    3.951726    1.978317
C     -3.038391    5.146474    2.862764
C     -2.526112    4.956755    4.295181
C     -1.008188    4.738169    4.311872
C     -0.614273    3.547571    3.427537
C     -0.559102   -1.904167   -1.622500
C     -1.076099   -1.170834   -2.914846
C     -2.253992   -0.202943   -2.665193
C     -1.478037   -2.161435   -4.025571
C     -1.717392   -2.382616   -0.709167
C     -1.145094   -3.633300   -0.199966
O     -1.644806   -4.325167    0.673356
C      0.175896   -3.871988   -0.841100
C      0.362095   -5.349515   -1.212237
O      0.139209   -3.078785   -2.004220
H      1.284363   -3.886950    1.039975
H      3.218755   -4.348451   -0.154183
H      2.681255   -3.463483   -1.631714
H      4.391883   -2.445196    0.492714
H      3.775449   -1.589148   -0.971903
H      2.663679   -1.712055    1.856449
H      2.779009    0.526312   -0.265744
H      3.787432    0.338669    1.200428
H      2.025946    0.669812    1.378917
H      0.413282   -1.718561    1.252729
H      1.318092   -0.798870   -1.537178
H     -0.073605    3.610237   -0.485688
H     -1.002056    1.542388    1.574578
H     -0.636787    4.637490    1.558892
H     -3.174170    3.037811    2.345152
H     -2.996264    4.150316    0.938289
H     -2.615569    6.083390    2.436108
H     -4.145520    5.247061    2.878947
H     -3.034479    4.083206    4.762876
H     -2.771632    5.857798    4.898266
H     -0.678118    4.544624    5.354564
H     -0.495208    5.658959    3.953575
H     -1.032127    2.613836    3.868817
H      0.493728    3.452008    3.417223
H     -0.238201   -0.569390   -3.330406
H     -2.088500    0.437349   -1.779720
H     -2.385324    0.462479   -3.546203
H     -3.204028   -0.755193   -2.511167
H     -1.880975   -1.612759   -4.903822
H     -2.253968   -2.869451   -3.661630
H     -0.596781   -2.742977   -4.373398
H     -1.934204   -1.670211    0.113079
H     -2.643140   -2.625761   -1.268883
H      1.292358   -5.490561   -1.799838
H      0.422576   -5.974764   -0.296216
H     -0.491668   -5.701347   -1.830161
