61

C     -0.987037    1.680688    3.335265
C     -1.632410    2.999419    2.875548
C     -2.620955    2.646419    1.764706
C     -2.596275    1.122675    1.645718
C     -2.987705    0.621972    0.252017
C     -1.215219    0.688038    2.169992
C     -0.046083    0.710185    1.108096
O     -0.018460   -0.548405    0.423522
C     -0.203240   -0.716725   -0.954384
O     -0.376364    0.277627   -1.707833
C     -0.095317   -2.076960   -1.517515
C     -0.690254   -2.502415   -2.653315
C     -1.614774   -1.614308   -3.449690
C     -0.411774   -3.873296   -3.163183
C     -0.354925   -4.976457   -2.288841
C     -0.098756   -6.259264   -2.783032
C      0.095098   -6.457589   -4.151297
C      0.042619   -5.371214   -5.029186
C     -0.211081   -4.086152   -4.540725
C      1.349798    0.977941    1.793773
C      2.547018    1.177346    0.800180
C      2.320413    2.326616   -0.195110
C      2.995126   -0.090875    0.049663
C      1.678957   -0.117551    2.842192
C      1.056478    0.463623    4.031790
O      0.895274   -0.123991    5.091672
C      0.513721    1.805461    3.698068
C      0.784966    2.811879    4.823365
O      1.209309    2.178083    2.533945
H     -1.545477    1.315219    4.228675
H     -2.154333    3.488936    3.724892
H     -0.871942    3.704680    2.474017
H     -2.292948    3.125264    0.814750
H     -3.642774    3.007540    2.010084
H     -3.354023    0.720554    2.359071
H     -2.813314   -0.470661    0.173604
H     -4.066914    0.812338    0.082881
H     -2.423665    1.149932   -0.540911
H     -1.290953   -0.342253    2.587226
H     -0.247293    1.543419    0.405240
H      0.532775   -2.759017   -0.960433
H     -2.283932   -1.037765   -2.779061
H     -1.020520   -0.919394   -4.078389
H     -2.271717   -2.220977   -4.104937
H     -0.528870   -4.849895   -1.227904
H     -0.055328   -7.100624   -2.103247
H      0.289904   -7.451578   -4.531476
H      0.193506   -5.527435   -6.088173
H     -0.241716   -3.258216   -5.236598
H      3.417206    1.484856    1.423770
H      2.034597    3.256838    0.335670
H      3.253760    2.531146   -0.758249
H      1.529790    2.070076   -0.926561
H      4.021210    0.060652   -0.347538
H      2.343080   -0.306613   -0.816097
H      3.023344   -0.976719    0.714938
H      1.231223   -1.103448    2.595742
H      2.770122   -0.222195    3.027107
H      0.226223    2.527315    5.740114
H      0.475178    3.834415    4.519489
H      1.869818    2.839391    5.061565
