64

C      3.877782    0.682993   -0.433304
C      4.439879    1.382504   -1.682548
C      3.616817    2.657537   -1.883646
C      2.618522    2.711918   -0.726948
C      1.325695    3.458095   -1.080784
C      2.453380    1.255728   -0.257199
C      1.374943    0.426931   -1.044544
O      0.087203    0.697145   -0.482684
C     -1.053049    1.010762   -1.234023
O     -1.004198    1.057197   -2.494545
C     -2.311964    1.276769   -0.522675
C     -3.457425    1.543985   -1.163689
C     -4.755264    1.810374   -0.439587
C     -5.198171    0.591219    0.395317
C     -6.527647    0.871147    1.107909
C     -6.432343    2.131016    1.978981
C     -5.996725    3.345111    1.147731
C     -4.664121    3.076286    0.436462
C      1.693744   -1.116252   -1.028265
C      0.682515   -1.931421   -1.916756
C     -0.608672   -2.349809   -1.179584
C      1.326943   -3.185419   -2.536574
C      1.793943   -1.671926    0.415830
C      3.211366   -1.421061    0.692951
O      3.747905   -1.574407    1.780102
C      3.862157   -0.865468   -0.523249
C      5.253165   -1.474186   -0.742605
O      2.998787   -1.234057   -1.573307
H      4.492589    0.989782    0.444886
H      5.515018    1.625948   -1.537466
H      4.343726    0.741538   -2.586361
H      4.269498    3.557970   -1.879133
H      3.088371    2.605895   -2.861664
H      3.100223    3.274452    0.106559
H      0.854174    3.047561   -1.996734
H      0.608350    3.397914   -0.235146
H      1.554637    4.529098   -1.266052
H      2.187189    1.248602    0.824920
H      1.412681    0.753939   -2.107668
H     -2.292483    1.243536    0.559622
H     -3.474358    1.571478   -2.247376
H     -5.531346    1.990083   -1.217590
H     -4.428886    0.338769    1.157619
H     -5.323159   -0.290459   -0.271254
H     -6.790004    0.002147    1.749238
H     -7.336909    0.998318    0.354809
H     -5.704558    1.961575    2.803389
H     -7.424492    2.336186    2.435367
H     -5.885276    4.226641    1.816163
H     -6.780438    3.583428    0.394951
H     -3.863690    2.964949    1.200161
H     -4.412381    3.952929   -0.200027
H      0.379478   -1.289346   -2.772744
H     -0.435605   -3.242143   -0.541209
H     -1.001252   -1.546563   -0.530244
H     -1.395839   -2.608991   -1.919776
H      1.738872   -3.847936   -1.745741
H      2.144742   -2.901917   -3.232963
H      0.575915   -3.756480   -3.124512
H      1.136316   -1.132411    1.130562
H      1.617745   -2.766358    0.469325
H      5.674357   -1.145834   -1.715736
H      5.945775   -1.162789    0.068519
H      5.187979   -2.583688   -0.753184
