60

C     -0.347375    1.846335   -1.918173
C     -1.052316    1.595605   -3.261395
C     -2.487509    1.174666   -2.935575
C     -2.615692    1.227209   -1.413014
C     -3.654019    0.242949   -0.860315
C     -1.183318    1.072156   -0.874393
C     -0.699425   -0.413029   -0.705672
O     -1.171052   -0.909500    0.549738
C     -1.809735   -2.146041    0.725164
O     -1.983759   -2.919614   -0.256588
C     -2.271328   -2.543440    2.072619
C     -2.904892   -3.782194    2.276601
C     -3.338536   -4.158577    3.550249
C     -3.146836   -3.302656    4.642947
C     -3.579572   -3.671721    5.926216
C     -3.382896   -2.808617    7.007953
C     -2.754760   -1.574894    6.818102
C     -2.318872   -1.195823    5.545193
C     -2.510556   -2.053244    4.450029
C     -2.077341   -1.683194    3.167736
C      0.867536   -0.534139   -0.815524
C      1.343276   -2.033307   -0.762017
C      1.557543   -2.575567    0.668100
C      2.627351   -2.268727   -1.578925
C      1.592212    0.354169    0.228762
C      1.682602    1.612408   -0.518289
O      2.068978    2.674075   -0.053363
C      1.141801    1.413512   -1.888889
C      2.001249    2.126945   -2.940457
O      1.196808    0.019050   -2.080216
H     -0.414646    2.935242   -1.687381
H     -1.043393    2.519487   -3.879925
H     -0.555988    0.782526   -3.835297
H     -2.665368    0.143343   -3.313745
H     -3.221550    1.859590   -3.413703
H     -2.961164    2.251170   -1.139446
H     -4.666783    0.540386   -1.205508
H     -3.645410    0.264488    0.249890
H     -3.464174   -0.791322   -1.212323
H     -1.105129    1.585433    0.110970
H     -1.130124   -1.003046   -1.545014
H     -3.065602   -4.463352    1.450315
H     -3.823762   -5.118704    3.680413
H     -4.068299   -4.624489    6.091867
H     -3.718294   -3.096641    7.995882
H     -2.605256   -0.910814    7.659612
H     -1.833788   -0.235454    5.417172
H     -1.589768   -0.725500    3.025634
H      0.559202   -2.662370   -1.237657
H      2.528610   -2.235188    1.085679
H      0.762959   -2.251691    1.363996
H      1.566217   -3.686248    0.650148
H      2.957197   -3.325694   -1.484444
H      3.446565   -1.606960   -1.226086
H      2.445303   -2.074652   -2.657103
H      2.622978    0.006714    0.448894
H      1.009846    0.476114    1.167190
H      1.660712    1.867361   -3.964580
H      1.936706    3.228659   -2.811819
H      3.063641    1.815655   -2.842982
