42

C      3.377156   -0.754813    0.491056
C      1.997807   -0.329693    0.892907
O      1.754456   -0.164260    2.078513
C      0.953414   -0.048347   -0.167025
C     -0.521974    0.033579    0.342555
C     -1.473051    0.292671   -0.851256
C     -0.953519   -1.311828    1.016419
C     -0.813329   -2.562006    0.170598
C     -1.895582   -3.027050   -0.597764
C     -1.769616   -4.185674   -1.369794
C     -0.568324   -4.900468   -1.370811
Br    -0.398226   -6.483408   -2.425532
C      0.504979   -4.460417   -0.590855
C      0.381865   -3.302436    0.182380
O     -0.710553    1.023147    1.355165
Si    -0.201960    2.683482    1.084808
C     -0.491146    3.432228   -0.606869
C     -1.199991    3.723011    2.271677
C      1.590565    2.945366    1.553164
H      4.116558   -0.012696    0.858467
H      3.604406   -1.746812    0.934276
H      3.465419   -0.827944   -0.613467
H      1.022162   -0.838942   -0.944554
H      1.234163    0.888730   -0.687703
H     -1.117311    1.110285   -1.496506
H     -1.524308   -0.582370   -1.527756
H     -2.496775    0.529468   -0.490701
H     -2.013839   -1.220408    1.342703
H     -0.387676   -1.459788    1.960365
H     -2.836253   -2.490352   -0.601308
H     -2.606807   -4.528381   -1.964167
H      1.432856   -5.017674   -0.578707
H      1.216262   -2.989955    0.795131
H     -0.264390    4.516898   -0.556883
H     -1.553682    3.309383   -0.900531
H      0.183793    2.973608   -1.357031
H     -2.278037    3.627804    2.028109
H     -1.023163    3.371487    3.308855
H     -0.893433    4.785619    2.184247
H      2.260398    2.483625    0.801416
H      1.782535    2.505086    2.552626
H      1.798889    4.034174    1.591869
