42

C     -0.950525   -2.223004   -3.121423
C      0.131540   -1.280081   -2.684613
O      0.186162   -0.177582   -3.205743
C      1.177261   -1.695031   -1.668159
C      1.277598   -0.757186   -0.423864
C      2.113283   -1.464919    0.681024
C      2.052501    0.535950   -0.827880
C      2.201808    1.520143    0.311653
C      3.396285    1.578473    1.050266
C      3.520582    2.467347    2.122154
C      2.455581    3.305899    2.465318
Br     2.626072    4.516009    3.932787
C      1.265382    3.257053    1.733210
C      1.137922    2.370033    0.660395
O     -0.021246   -0.335152   -0.008357
Si    -0.981198   -1.377033    1.019992
C     -1.119324   -3.167330    0.487658
C     -2.715579   -0.688868    0.979586
C     -0.415268   -1.281885    2.801295
H     -1.930847   -1.859311   -2.748685
H     -0.978928   -2.268123   -4.230472
H     -0.772799   -3.250780   -2.744204
H      2.161585   -1.745170   -2.182745
H      0.966340   -2.731408   -1.337232
H      1.731082   -2.476443    0.913871
H      2.122132   -0.869187    1.616484
H      3.164991   -1.595556    0.346245
H      3.057400    0.272350   -1.227339
H      1.529299    1.063887   -1.649451
H      4.227040    0.929706    0.802021
H      4.443313    2.501440    2.686952
H      0.438729    3.904827    1.995166
H      0.209751    2.344216    0.103171
H     -0.138555   -3.678088    0.508759
H     -1.556087   -3.221565   -0.526578
H     -1.799486   -3.692132    1.189230
H     -3.102236   -0.727412   -0.059547
H     -2.702935    0.363495    1.330343
H     -3.370708   -1.292148    1.641033
H     -0.126825   -0.237767    3.041302
H      0.446061   -1.958206    2.970401
H     -1.246545   -1.595250    3.465491
