42

C      0.127898    0.853348    4.003456
C     -0.740696    0.093813    3.044623
O     -1.898246    0.449321    2.883994
C     -0.218846   -1.116553    2.303119
C      0.084543   -0.865416    0.794892
C     -1.213573   -0.523997    0.013792
C      1.059023    0.345505    0.679750
C      1.564090    0.566495   -0.728697
C      2.665248   -0.162239   -1.211182
C      3.112998    0.021679   -2.522782
C      2.467693    0.933771   -3.361847
C      1.373778    1.664208   -2.890368
C      0.922232    1.483063   -1.579583
O      0.798359   -1.984295    0.268276
Si    -0.072581   -3.423125   -0.222628
C     -1.306099   -4.100693    1.012117
C     -0.895947   -3.197288   -1.888202
C      1.216428   -4.753518   -0.453238
H      0.191086    1.914799    3.684607
H      1.155217    0.434240    4.037043
H     -0.311719    0.805162    5.021567
H      0.707034   -1.484868    2.796305
H     -0.969222   -1.916737    2.424701
H     -2.023679   -1.247120    0.234196
H     -1.590898    0.482897    0.290350
H     -1.021801   -0.516158   -1.078499
H      0.572987    1.278728    1.040191
H      1.935363    0.178299    1.345103
H      3.173617   -0.874494   -0.573137
H      3.959803   -0.544131   -2.889121
H      2.815065    1.074327   -4.377222
H      0.873932    2.369578   -3.541544
H      0.069497    2.051766   -1.230123
H     -2.178106   -3.424250    1.108476
H     -1.666032   -5.086377    0.652604
H     -0.813525   -4.239056    1.996270
H     -1.081528   -4.192709   -2.341072
H     -1.866815   -2.675696   -1.772724
H     -0.229283   -2.610349   -2.552986
H      0.728522   -5.688856   -0.796451
H      1.732539   -4.937800    0.511236
H      1.956296   -4.422431   -1.210666
