42

C      3.302686   -0.039421   -1.554640
C      1.972185    0.417097   -2.076454
O      1.492671   -0.160459   -3.040328
C      1.262065    1.617264   -1.483880
C     -0.233248    1.363020   -1.122293
C     -0.823280    2.721450   -0.674480
C     -0.341649    0.287939    0.015666
C      0.455504    0.594931    1.267087
C     -0.027303    1.511999    2.218261
C      0.713262    1.792841    3.370399
C      1.932958    1.149175    3.593629
F      2.648983    1.421190    4.712303
C      2.406411    0.213286    2.670849
C      1.667759   -0.070159    1.518398
O     -0.854555    0.956404   -2.341730
Si    -2.474237    0.290095   -2.312790
C     -2.445487   -1.529328   -1.873012
C     -3.113261    0.397457   -4.063516
C     -3.723707    1.190386   -1.247204
H      3.628467    0.564708   -0.682512
H      4.065703    0.059192   -2.354801
H      3.238947   -1.105321   -1.251982
H      1.312910    2.428488   -2.243540
H      1.818055    1.991735   -0.597508
H     -1.777584    2.598708   -0.132290
H     -0.130835    3.256990    0.009732
H     -0.999831    3.373646   -1.556583
H     -0.028671   -0.698241   -0.391061
H     -1.396060    0.173065    0.333970
H     -0.980221    2.003817    2.075480
H      0.337228    2.505897    4.092738
H      3.342554   -0.299350    2.850989
H      2.034675   -0.819106    0.831426
H     -1.602798   -2.021470   -2.400393
H     -3.399935   -1.995962   -2.191925
H     -2.331859   -1.667748   -0.779951
H     -2.431750   -0.158187   -4.739829
H     -3.156886    1.461141   -4.375347
H     -4.128986   -0.045515   -4.116401
H     -3.507315    1.038498   -0.171425
H     -3.717449    2.271579   -1.494515
H     -4.733057    0.782735   -1.460233
