35

C      2.221612    2.400050   -2.068843
C      2.322914    0.914378   -2.253233
O      2.338335    0.457979   -3.386469
C      2.449726   -0.017567   -1.073794
C      1.332934   -1.084930   -1.024788
C     -0.002135   -0.623762   -0.366856
C     -0.650979    0.475016   -1.240412
C     -0.922507   -1.868924   -0.312628
O      0.340889   -0.128423    0.925612
Si    -0.935756    0.193385    2.080079
C     -1.425364   -1.369745    2.984939
C     -2.463627    1.047456    1.415697
C     -0.209165    1.343511    3.358376
H      2.192370    2.674173   -0.993602
H      3.099020    2.892094   -2.538065
H      1.296139    2.773146   -2.555310
H      2.492626    0.549032   -0.120125
H      3.426189   -0.539773   -1.170598
H      1.730707   -1.936275   -0.427799
H      1.150389   -1.487135   -2.046553
H     -1.747450    0.519721   -1.102312
H     -0.488832    0.276369   -2.321439
H     -0.229517    1.469540   -0.988377
H     -0.511534   -2.623674    0.391421
H     -1.006604   -2.336465   -1.317555
H     -1.951797   -1.607243    0.003010
H     -0.511830   -1.925396    3.279982
H     -1.999928   -1.099381    3.894477
H     -2.058847   -2.011308    2.341481
H     -3.088997    1.375489    2.271074
H     -3.061524    0.350605    0.795764
H     -2.170668    1.939990    0.826166
H      0.092548    2.292977    2.870409
H      0.679534    0.867218    3.820887
H     -0.965768    1.554156    4.141888
