27

C     -1.203247   -2.063643    2.160957
O     -0.764244   -0.973279    1.361020
C     -1.516718    0.194706    1.197965
O     -2.626016    0.327332    1.783976
C     -0.987390    1.316620    0.347164
C      0.135761    2.078614    1.066726
C      1.406841    1.279269    1.103120
C      1.785948    0.534738    0.054368
C      0.965732    0.440519   -1.224884
C      1.067516   -1.000023   -1.761205
C      1.552375    1.418637   -2.255888
C     -0.503813    0.785611   -0.983819
O     -1.317246    0.628796   -1.883967
H     -2.161893   -2.462301    1.766712
H     -0.439641   -2.867638    2.130702
H     -1.337328   -1.733418    3.212781
H     -1.811659    2.040676    0.157110
H     -0.172686    2.344811    2.101095
H      0.336483    3.026201    0.520987
H      2.022986    1.299985    1.996838
H      2.732917    0.004792    0.115332
H      0.642533   -1.718434   -1.026943
H      0.512067   -1.107331   -2.717977
H      2.127751   -1.277130   -1.948832
H      1.003365    1.351040   -3.220047
H      1.479390    2.464018   -1.884718
H      2.623188    1.189768   -2.448324
