39

O     -1.808728   -2.321738   -0.285655
C     -1.811045   -1.189340    0.265942
C     -3.041972   -0.385319    0.271263
O     -4.175510   -0.858515   -0.396192
C     -5.397789   -0.132242   -0.439288
O     -3.071263    0.721556    0.876680
C     -0.585055   -0.708359    0.928925
C     -0.248871   -1.256699    2.173420
C      0.912180   -0.847552    2.851484
O      1.268337   -1.372899    4.104071
C      0.514689   -2.350274    4.814336
C      1.751572    0.110423    2.270116
O      2.908322    0.492164    2.968968
C      3.853758    1.451097    2.505870
C      1.423325    0.655221    1.015332
C      0.251851    0.266774    0.336869
C     -0.047741    0.822844   -1.056922
O      0.238134   -0.137840   -2.063325
C      1.625702   -0.377409   -2.194377
O      0.639610    2.041482   -1.317954
C     -0.064008    3.139588   -0.775518
H     -5.786750    0.018928    0.589963
H     -6.143613   -0.708073   -1.024644
H     -5.237989    0.851907   -0.928661
H     -0.902057   -2.001404    2.609681
H      0.443458   -3.284742    4.218600
H      1.027270   -2.577860    5.771300
H     -0.500612   -1.960551    5.039081
H      4.305233    1.111423    1.549812
H      3.361815    2.437253    2.368708
H      4.659839    1.558524    3.260178
H      2.087245    1.374192    0.557105
H     -1.145559    0.994245   -1.129099
H      2.046170   -0.846148   -1.279594
H      2.184976    0.546495   -2.455888
H      1.778037   -1.095584   -3.025749
H     -1.011473    3.312076   -1.331396
H      0.561593    4.049026   -0.883934
H     -0.272280    3.000867    0.308679
