71

C      1.022331    1.284145   -5.790741
C      1.310874    2.758762   -5.506868
C      0.401194    3.344339   -4.416669
C     -1.066916    3.447426   -4.862636
C     -1.942069    4.170950   -3.827774
C     -1.972529    3.456502   -2.505263
O     -1.339990    3.947387   -1.531315
C     -2.666136    2.154153   -2.385242
C     -2.905935    1.513928   -1.223917
C     -3.541108    0.138286   -1.268679
C     -2.663467   -0.911568   -1.978328
C     -1.413576   -1.229700   -1.199084
C     -0.258278   -0.447640   -1.356781
C      0.887745   -0.698836   -0.576512
O      2.050594    0.080183   -0.685441
C      2.187082    1.212126   -1.537338
C      0.879018   -1.751756    0.351319
O      2.036741   -1.978268    1.111679
C      2.167758   -2.991600    2.104438
C      3.539368   -2.913349    2.707431
C      3.789353   -2.048351    3.785654
C      5.076893   -1.946082    4.322035
C      6.123792   -2.695878    3.778603
C      5.885996   -3.545487    2.694595
C      4.599990   -3.650506    2.155097
C     -0.277975   -2.539271    0.499223
C     -1.414995   -2.274332   -0.264953
N     -2.771013    2.208200    0.031417
C     -2.192726    1.637283    1.219092
O     -1.887237    0.416122    1.249568
C     -1.948638    2.465884    2.423948
C     -1.911392    1.861877    3.694789
C     -1.674029    2.630253    4.838514
C     -1.462695    4.006033    4.726728
C     -1.482309    4.615016    3.470311
C     -1.720314    3.851811    2.322901
H      0.037615    1.165765   -6.288011
H      1.801662    0.880242   -6.470652
H      1.033264    0.694043   -4.850401
H      1.208395    3.345454   -6.445538
H      2.365494    2.848596   -5.167028
H      0.773786    4.360971   -4.163315
H      0.475912    2.719237   -3.502062
H     -1.119921    4.012835   -5.818451
H     -1.481410    2.434186   -5.047105
H     -1.570583    5.210015   -3.688935
H     -2.979300    4.242061   -4.220208
H     -2.959737    1.675313   -3.311254
H     -3.795615   -0.215812   -0.247843
H     -4.506065    0.217256   -1.815229
H     -3.262730   -1.838905   -2.110126
H     -2.394555   -0.573821   -3.002056
H     -0.265471    0.361692   -2.074695
H      3.197258    1.648989   -1.400495
H      1.429069    1.980353   -1.274736
H      2.075462    0.905477   -2.597804
H      2.010526   -3.991781    1.644452
H      1.399199   -2.845570    2.894946
H      2.989027   -1.453953    4.209102
H      5.263850   -1.282499    5.156450
H      7.119920   -2.614598    4.193924
H      6.699162   -4.119630    2.269640
H      4.431627   -4.304399    1.308274
H     -0.313132   -3.352669    1.210731
H     -2.301957   -2.878859   -0.120620
H     -3.136344    3.185508    0.075087
H     -2.076319    0.797009    3.804832
H     -1.654155    2.157977    5.812269
H     -1.277654    4.599125    5.612954
H     -1.306243    5.679559    3.383948
H     -1.697680    4.346569    1.361488
