89

C     -3.482010   -5.309421   -0.177213
C     -3.401173   -4.179444   -1.199162
C     -2.235974   -4.398418   -2.174074
C     -2.137952   -3.282107   -3.225566
C     -1.512996   -2.000858   -2.655053
C     -1.419079   -0.923052   -3.705382
O     -2.456438   -0.596655   -4.342516
C     -0.149819   -0.248238   -4.045398
C      0.814446    0.091484   -3.166362
C      2.125281    0.637833   -3.674420
C      2.078532    2.159434   -3.873435
C      1.857381    2.912046   -2.582899
C      2.852942    2.926754   -1.593880
C      2.674289    3.663444   -0.406978
O      3.656175    3.704807    0.597574
C      4.901243    3.016373    0.539110
C      1.490857    4.395669   -0.213380
O      1.369908    5.158086    0.961824
C      0.270269    6.003049    1.303926
C     -0.843949    5.204742    1.924320
C     -0.630517    4.538799    3.142347
C     -1.669611    3.826758    3.749347
C     -2.926549    3.769826    3.141242
C     -3.145793    4.424708    1.926100
C     -2.111287    5.146029    1.320849
C      0.484186    4.358154   -1.197678
C      0.668002    3.622737   -2.369849
N      0.639644   -0.028969   -1.745252
C     -0.476070    0.543035   -1.038209
O     -1.296254    1.280827   -1.650005
C     -0.718187    0.256054    0.425694
C     -0.665378    1.536791    1.261068
C      0.567369    1.420466    2.133899
C      1.269140    0.156692    1.677398
N      0.292075   -0.672403    0.960536
S     -0.447692   -1.828746    2.046950
O     -1.137296   -1.107914    3.172931
O     -1.463808   -2.647078    1.301544
C      0.779452   -2.918880    2.683778
C      1.006056   -3.012906    4.064336
C      1.988979   -3.874999    4.558428
C      2.755822   -4.652182    3.675933
C      3.815208   -5.579158    4.193016
C      2.529998   -4.553179    2.293932
C      1.546982   -3.689964    1.800659
H     -2.545283   -5.361295    0.416779
H     -4.328155   -5.123781    0.517432
H     -3.647015   -6.281713   -0.689003
H     -3.274230   -3.221373   -0.654655
H     -4.358272   -4.137775   -1.764212
H     -1.278408   -4.479513   -1.614394
H     -2.393906   -5.362097   -2.704981
H     -3.146419   -3.070462   -3.640328
H     -1.499346   -3.642558   -4.062266
H     -2.129985   -1.615287   -1.818752
H     -0.503817   -2.252395   -2.266707
H      0.000267   -0.016032   -5.093395
H      2.941338    0.374514   -2.967983
H      2.384376    0.159072   -4.644360
H      3.045140    2.489591   -4.311634
H      1.289928    2.407971   -4.617476
H      3.767140    2.371449   -1.761948
H      5.485415    3.246134    1.455353
H      4.727547    1.918572    0.492053
H      5.484017    3.352651   -0.347639
H     -0.067574    6.588057    0.421127
H      0.623628    6.742193    2.054945
H      0.340203    4.574501    3.620709
H     -1.496306    3.311733    4.685840
H     -3.728333    3.213134    3.607488
H     -4.119594    4.376809    1.456590
H     -2.301431    5.659733    0.387492
H     -0.443306    4.897581   -1.073142
H     -0.117554    3.613437   -3.114980
H      1.450752   -0.396782   -1.203808
H     -1.742930   -0.174538    0.487607
H     -1.571823    1.598289    1.899525
H     -0.617102    2.455295    0.639125
H      1.230352    2.304003    2.021248
H      0.271354    1.325217    3.200447
H      1.739348   -0.371842    2.534490
H      2.084670    0.432179    0.973392
H      0.427621   -2.418998    4.759486
H      2.151514   -3.933314    5.627341
H      3.596841   -6.616887    3.862769
H      3.861815   -5.566443    5.303248
H      4.805274   -5.270554    3.794072
H      3.115186   -5.145610    1.601130
H      1.383549   -3.621380    0.731785
