31

C     -0.364034   -1.545877   -3.911105
C     -0.242302   -0.452795   -2.856235
O     -1.120544   -0.709638   -1.763165
C     -2.503836   -0.493640   -1.814870
O     -3.038418   -0.001050   -2.845868
C     -3.354342   -0.811708   -0.616121
C     -3.084519   -2.235052   -0.117831
C     -3.119663    0.196449    0.478692
O     -4.083640    0.871760    0.926751
C     -1.805763    0.397122    1.033940
C     -0.698458    0.557047    1.481711
C      0.629832    0.741959    2.001978
C      0.815712    1.165831    3.324963
C      2.109234    1.344199    3.826909
C      3.217699    1.099679    3.009942
C      3.034163    0.676320    1.689772
C      1.742086    0.497264    1.184674
H     -0.151391   -2.536344   -3.456088
H      0.365825   -1.360048   -4.726896
H     -1.386535   -1.555434   -4.342751
H     -0.459400    0.541965   -3.302619
H      0.800564   -0.439249   -2.475195
H     -4.424603   -0.764602   -0.920117
H     -2.027161   -2.353037    0.203843
H     -3.746967   -2.467991    0.743276
H     -3.294830   -2.967292   -0.926799
H     -0.036723    1.357309    3.965823
H      2.252388    1.671900    4.848399
H      4.218049    1.237391    3.399776
H      3.892646    0.487032    1.058357
H      1.610046    0.169298    0.160327
