34

C      0.383594    0.654878    0.655821
C      1.043112    1.854114    1.304298
C      2.546654    1.510093    1.197474
C      2.647144    0.019370    0.781833
C      1.256316   -0.546410    1.085988
C      1.202329   -0.901057    2.604243
C      0.793932   -1.783033    0.319171
O      1.603656   -2.541731   -0.191578
C     -0.705689   -2.117716    0.297056
C     -1.513764   -0.842822   -0.060615
C     -1.298391   -0.538805   -1.579402
C     -3.041079   -0.843899    0.178711
O     -3.345789    0.548632    0.325445
C     -2.201570    1.254469    0.675530
O     -2.171916    2.495767    0.880869
C     -1.090199    0.312678    0.891912
H      0.517598    0.842155   -0.432590
H      0.725913    1.961808    2.363768
H      0.803476    2.791629    0.756431
H      3.040809    2.151654    0.435829
H      3.042894    1.672525    2.178840
H      3.459286   -0.504593    1.332226
H      2.859191   -0.050171   -0.308870
H      0.223561   -1.315281    2.916171
H      1.957742   -1.684642    2.829619
H      1.428336   -0.031527    3.253800
H     -0.911077   -2.924145   -0.440661
H     -1.012349   -2.495874    1.294830
H     -1.847385   -1.280099   -2.199221
H     -0.234350   -0.617120   -1.884242
H     -1.665634    0.473367   -1.852273
H     -3.625470   -1.290588   -0.654255
H     -3.287018   -1.376316    1.123727
H     -1.217082    0.000928    1.949580
