63

C      3.217464    1.544639    2.954127
C      2.984520    2.298665    4.245814
C      3.696300    1.898889    5.502782
O      2.199528    3.234651    4.277848
O      2.610725    2.211888    1.840598
C      1.492531    1.422375    1.418563
O      1.844820    0.709123    0.251443
Si     0.473237    0.331034   -0.758487
C     -1.169348    0.392991    0.155910
C     -1.702459   -0.784307    0.710703
C     -2.902441   -0.752256    1.426439
C     -3.580782    0.455061    1.601465
C     -3.055587    1.632575    1.066271
C     -1.854239    1.604106    0.351773
C      0.714151   -1.424991   -1.326294
C     -0.287016   -2.077139   -2.062186
C     -0.098474   -3.393707   -2.492705
C      1.089558   -4.065410   -2.192380
C      2.090339   -3.421096   -1.460224
C      1.905783   -2.104003   -1.029013
C      0.575665    1.472263   -2.291905
C     -0.776244    1.525659   -3.024463
C      1.647458    0.923695   -3.253141
C      0.990497    2.891971   -1.861359
C      1.241415    0.490656    2.582064
O      0.670781   -0.767682    2.490303
C      1.283435   -1.413325    3.615911
C      1.738055   -2.818571    3.199479
C      0.269533   -1.515339    4.762835
O      2.417367   -0.646894    4.052597
C      2.601885    0.166240    2.945670
H      4.312468    1.469095    2.777625
H      4.290664    2.755822    5.883096
H      2.953160    1.598962    6.270957
H      4.381256    1.045031    5.315547
H      0.637620    2.115795    1.267320
H     -1.186349   -1.729441    0.609635
H     -3.302977   -1.663699    1.851172
H     -4.509005    0.479486    2.157448
H     -3.576871    2.570226    1.210225
H     -1.465160    2.531692   -0.033961
H     -1.218820   -1.576770   -2.288975
H     -0.874963   -3.894526   -3.056217
H      1.233738   -5.085069   -2.525343
H      3.009850   -3.942154   -1.227075
H      2.692759   -1.621602   -0.464108
H     -1.087504    0.514464   -3.357032
H     -1.571074    1.943331   -2.374923
H     -0.702850    2.172122   -3.925675
H      1.357108   -0.072693   -3.648848
H      1.780436    1.604415   -4.121801
H      2.626789    0.825961   -2.736474
H      1.978571    2.877290   -1.353098
H      0.252954    3.342275   -1.170522
H      1.072717    3.559082   -2.746872
H      0.702221    1.073201    3.373078
H      2.241344   -3.329972    4.047733
H      0.866138   -3.426129    2.874827
H      2.451664   -2.756726    2.350991
H      0.722114   -2.034685    5.634532
H     -0.631429   -2.076067    4.433369
H     -0.046921   -0.501794    5.087336
H      3.130114   -0.426519    2.152825
