46

C      1.905852    2.690636    1.553081
C      2.085414    3.407212    0.224193
O      1.739673    2.528478   -0.840145
C      1.771424    2.916266   -2.182707
O      2.096865    4.090578   -2.508294
C      1.376099    1.932507   -3.237048
C     -0.052235    2.124038   -3.686570
O     -0.308266    2.063661   -4.879793
C     -1.188959    2.300057   -2.705907
C     -1.878102    0.968490   -2.378318
C     -0.983565    0.060125   -1.573402
C     -0.703189    0.356928   -0.230932
C      0.176073   -0.444056    0.501915
C      0.784409   -1.563215   -0.097013
O      1.683666   -2.394834    0.589919
C      2.059664   -2.249281    1.960093
C      0.920521   -2.619532    2.872636
C      0.534916   -1.762215    3.917121
C     -0.516353   -2.117646    4.767967
C     -1.182186   -3.333285    4.589195
C     -0.795379   -4.197524    3.561343
C      0.255043   -3.845791    2.708000
C      0.492301   -1.863986   -1.432417
C     -0.383502   -1.060431   -2.167938
H      2.212718    3.359435    2.384485
H      2.530026    1.772118    1.577943
H      0.840149    2.411508    1.691420
H      1.429322    4.304306    0.199986
H      3.145012    3.725399    0.117141
H      1.502974    0.903244   -2.844254
H      2.063080    2.040736   -4.104652
H     -0.839409    2.783623   -1.769985
H     -1.938565    2.989097   -3.152065
H     -2.205590    0.473197   -3.318987
H     -2.797106    1.177584   -1.788793
H     -1.153177    1.220415    0.243272
H      0.381310   -0.176213    1.527569
H      2.422272   -1.214473    2.144483
H      2.908123   -2.934644    2.166289
H      1.043056   -0.818197    4.070262
H     -0.813798   -1.451119    5.567175
H     -1.995277   -3.607012    5.249040
H     -1.308394   -5.141010    3.426791
H      0.548013   -4.526297    1.918036
H      0.954651   -2.720926   -1.905662
H     -0.578781   -1.302341   -3.205229
