54

C     -1.539960    1.637940   -3.625445
C     -1.846750    0.186503   -4.020973
C     -1.187298   -0.171164   -5.360183
C     -1.444353   -0.789375   -2.929014
C     -0.163456   -0.887237   -2.520434
C      0.291337   -1.810951   -1.449715
C      1.587146   -1.991792   -1.125747
C      2.696236   -1.255823   -1.835413
C      1.957017   -2.932185   -0.000543
C      2.305797   -2.163347    1.281131
C      1.079743   -1.589365    1.951685
C      1.138938   -0.737328    2.997131
C      2.462380   -0.258778    3.548768
C     -0.142729   -0.237741    3.629582
C     -0.681505    1.015658    2.922748
C     -1.300925    0.687381    1.580423
O     -0.599324    0.810193    0.585076
C     -2.711554    0.121756    1.415561
C     -3.419981    0.860510    0.260595
C     -3.570094    0.269082    2.692292
O     -2.583010   -1.242949    1.093515
C     -2.476733   -1.626863   -2.360861
N     -3.304239   -2.296674   -1.908785
H     -0.446025    1.811235   -3.540764
H     -2.018322    1.879162   -2.652846
H     -1.946480    2.333419   -4.391416
H     -2.947924    0.119559   -4.174457
H     -1.436189   -1.218386   -5.637366
H     -1.567275    0.498138   -6.162058
H     -0.082620   -0.064836   -5.306922
H      0.571922   -0.255244   -3.000014
H     -0.457000   -2.367122   -0.898124
H      3.690451   -1.553764   -1.441683
H      2.674912   -1.489947   -2.919978
H      2.582277   -0.162227   -1.684032
H      2.843127   -3.526613   -0.311566
H      1.146630   -3.667463    0.202932
H      3.025790   -1.354282    1.036860
H      2.800278   -2.858677    1.991134
H      0.104525   -1.890332    1.579946
H      2.316845    0.428584    4.408617
H      3.067571   -1.124469    3.894470
H      3.019875    0.296732    2.764061
H      0.047573    0.017009    4.694695
H     -0.905783   -1.046311    3.639993
H     -1.418874    1.520715    3.578755
H      0.146332    1.746462    2.783575
H     -4.451847    0.472896    0.117581
H     -2.870793    0.712055   -0.691665
H     -3.478744    1.950605    0.470886
H     -3.131914   -0.301082    3.537068
H     -4.592925   -0.130267    2.519617
H     -3.669200    1.337595    2.980089
H     -3.492884   -1.618218    0.960073
