48

C     -0.402814   -1.307329    1.447216
C     -1.182624   -2.116765    0.358027
C     -0.297978   -2.422420   -0.941805
C     -1.115120   -3.212623   -1.975015
C      0.322699   -1.093712   -1.518363
C     -0.890184   -0.234623   -1.947116
C     -1.015464   -0.160573   -3.262821
C     -2.133583    0.520700   -3.985339
C      0.169856   -0.695755   -3.866178
O      0.360240   -0.829674   -5.104091
C      1.182944   -0.942243   -2.813297
C      2.084045    0.375340   -2.731940
C      1.445694    1.620169   -2.009766
C      1.279546    2.878750   -2.822683
C      1.011973    1.676156   -0.686131
C      1.010469    0.532624    0.345026
C      1.305517   -0.667794   -0.430189
O      2.313853   -1.323041   -0.192758
C     -0.374666    0.230296    1.023714
C     -0.766458   -0.210929    2.432576
C      0.249090    0.094555    3.538557
C     -2.250779   -0.127329    2.804138
H      0.566485   -1.775609    1.730085
H     -2.132093   -1.611057    0.087968
H     -1.472520   -3.086131    0.815680
H      0.528876   -3.103301   -0.635838
H     -2.037088   -2.666418   -2.264801
H     -1.415123   -4.192310   -1.546207
H     -0.503922   -3.405380   -2.881646
H     -1.711196    0.086368   -1.335803
H     -2.248031    0.091646   -5.002656
H     -3.088584    0.384010   -3.435100
H     -1.911430    1.604879   -4.069834
H      1.788404   -1.849135   -3.028813
H      2.403755    0.646515   -3.761363
H      3.037580    0.133315   -2.216233
H      1.861169    3.704140   -2.360361
H      1.629937    2.749551   -3.867299
H      0.206266    3.163078   -2.854797
H      0.617708    2.620088   -0.318851
H      1.793313    0.726661    1.107990
H     -1.258615    0.700338    0.561726
H      0.028302   -0.533279    4.426991
H      1.293506   -0.110234    3.223780
H      0.168882    1.163308    3.827335
H     -2.914166   -0.332659    1.937964
H     -2.478855    0.889895    3.185422
H     -2.474704   -0.867023    3.600933
