48

C      2.061790    0.961667   -0.447996
C      1.261265    0.224526   -1.572882
C     -0.321726    0.435613   -1.449881
C     -1.053195   -0.312771   -2.574412
C     -0.825281    0.046524   -0.008275
C     -0.524121   -1.464432    0.130186
C     -1.621774   -2.203024    0.086730
C     -1.655989   -3.697995    0.104393
C     -2.760232   -1.336745    0.181451
O     -3.963068   -1.704709    0.115077
C     -2.301900    0.035702    0.500894
C     -2.341866    0.170444    2.093098
C     -1.186191   -0.538662    2.888434
C     -1.628491   -1.585395    3.878690
C      0.180269   -0.281954    2.772671
C      0.863580    0.706158    1.809242
C     -0.187996    1.110752    0.882034
O     -0.532585    2.285135    0.814632
C      1.983805    0.097112    0.890238
C      3.306989    0.647970    0.362113
C      3.922874    1.799133    1.164220
C      4.274133   -0.352129   -0.280301
H      1.812362    2.043635   -0.370610
H      1.521379   -0.853104   -1.607623
H      1.593237    0.650092   -2.543373
H     -0.533861    1.514810   -1.626637
H     -0.813935   -1.396701   -2.561094
H     -0.744602    0.096344   -3.559835
H     -2.150783   -0.179157   -2.473734
H      0.425591   -1.952640    0.027749
H     -0.799970   -4.110134   -0.470760
H     -1.598474   -4.055787    1.153484
H     -2.598219   -4.063861   -0.354394
H     -2.928672    0.805703    0.001171
H     -2.339526    1.246390    2.369061
H     -3.327013   -0.198290    2.456211
H     -2.235737   -2.353879    3.355736
H     -0.773235   -2.098197    4.368170
H     -2.249534   -1.109413    4.665974
H      0.864415   -0.826594    3.416837
H      1.250733    1.571551    2.387032
H      2.039188   -1.003363    0.850494
H      4.425845    1.391960    2.066036
H      4.676916    2.322736    0.540144
H      3.166019    2.544236    1.486385
H      3.743387   -1.168333   -0.813797
H      4.911867   -0.806097    0.506686
H      4.924762    0.177437   -1.007227
