119

C     -6.016069   -6.285024    4.740915
O     -4.746272   -5.762135    5.110423
C     -3.708872   -5.485347    4.210257
C     -2.482916   -5.046167    4.725363
C     -1.412362   -4.766089    3.872769
C     -1.554119   -4.926059    2.486302
C     -0.419540   -4.596959    1.553905
O     -0.703370   -3.407134    0.846475
C     -0.348477   -2.251320    1.590041
C     -1.471743   -1.241593    1.487642
O     -2.421309   -1.310629    2.263477
C     -1.390469   -0.102819    0.481948
O     -1.592294   -0.587244   -0.836009
Si    -3.251854   -1.021648   -1.184731
C     -3.542374   -2.810144   -0.686449
C     -4.509072    0.022706   -0.256455
C     -3.543531   -0.867934   -3.068013
C     -2.272300   -1.328568   -3.806340
C     -3.860125    0.592458   -3.443914
C     -4.731858   -1.754582   -3.495337
C      0.008334    0.607975    0.537975
O     -0.136064    1.913756    1.067764
Si    -0.175327    3.135023   -0.172873
C     -1.333930    2.650766   -1.560767
C      1.533893    3.326951   -0.900270
C     -0.770421    4.769627    0.593633
C     -1.953978    4.478868    1.533952
C     -1.217063    5.736306   -0.516553
C      0.372449    5.418835    1.391549
C      1.039449   -0.158362    1.406338
O      2.338920    0.351922    1.157855
Si     3.145026    0.861166    2.618954
C      2.239750    2.327274    3.350441
C      3.176268   -0.512293    3.896523
C      4.937042    1.368578    2.207729
C      5.548482    2.171092    3.372306
C      4.925876    2.233778    0.941154
C      5.787276    0.112547    1.958061
C      0.969368   -1.661806    1.042826
O      2.066307   -2.360024    1.613750
C      2.941662   -2.859560    0.622468
O      3.451514   -1.791931   -0.150091
C      4.394798   -2.261695   -1.081702
C      4.607398   -1.188654   -2.103069
C      3.724332   -1.082012   -3.189483
C      3.849330   -0.028836   -4.102950
C      4.852605    0.931502   -3.927355
C      5.722948    0.842940   -2.834274
C      5.599146   -0.212941   -1.924273
C     -2.783693   -5.359878    1.965759
C     -3.853958   -5.637516    2.819009
H     -6.633937   -6.422794    5.654914
H     -5.885532   -7.270921    4.251341
H     -6.536046   -5.580382    4.057473
H     -2.356169   -4.921491    5.791321
H     -0.475920   -4.426558    4.295807
H      0.556194   -4.554816    2.088474
H     -0.320545   -5.417444    0.809964
H     -0.209651   -2.439638    2.679065
H     -2.152170    0.661925    0.731961
H     -4.608060   -3.072225   -0.841039
H     -3.315719   -2.943640    0.387287
H     -2.895694   -3.481653   -1.286719
H     -4.460761   -0.202896    0.827948
H     -5.532154   -0.213487   -0.628309
H     -4.303490    1.099665   -0.421302
H     -1.416215   -0.660676   -3.576790
H     -2.423946   -1.326252   -4.904194
H     -1.993891   -2.356271   -3.505319
H     -4.085191    0.664538   -4.528432
H     -4.751410    0.957270   -2.903525
H     -3.008166    1.259364   -3.224086
H     -4.511132   -2.825835   -3.296969
H     -5.652163   -1.461059   -2.944244
H     -4.923083   -1.644805   -4.583184
H      0.448790    0.608313   -0.488930
H     -2.355693    2.503272   -1.164400
H     -0.979889    1.721755   -2.040382
H     -1.351838    3.442967   -2.331091
H      2.270422    3.403050   -0.081334
H      1.570054    4.244147   -1.530156
H      1.771811    2.446555   -1.525149
H     -2.764912    3.954449    0.987245
H     -1.631463    3.830839    2.376107
H     -2.363876    5.420755    1.951300
H     -0.408000    5.896818   -1.255734
H     -2.103000    5.337909   -1.053908
H     -1.509771    6.722457   -0.096561
H      1.247474    5.625571    0.740091
H      0.043942    6.385101    1.825099
H      0.690685    4.769729    2.224566
H      0.713015   -0.051960    2.465752
H      2.689858    2.588934    4.331899
H      1.169284    2.090107    3.505812
H      2.336759    3.188772    2.664436
H      3.717843   -0.159909    4.799386
H      3.690615   -1.400217    3.486308
H      2.143987   -0.790690    4.189532
H      5.511204    1.589408    4.317679
H      4.997578    3.126938    3.527994
H      6.610027    2.421501    3.161320
H      4.498159    1.680249    0.081763
H      4.333730    3.155884    1.100835
H      5.957529    2.545142    0.665789
H      5.908440   -0.468243    2.896995
H      5.302478   -0.541456    1.210587
H      6.796880    0.392577    1.587371
H      0.935341   -1.743323   -0.070639
H      3.766995   -3.391399    1.152099
H      2.403725   -3.595782   -0.018008
H      4.051037   -3.187795   -1.592213
H      5.352644   -2.488680   -0.565916
H      2.929812   -1.807189   -3.321790
H      3.166332    0.045198   -4.941929
H      4.938934    1.758078   -4.624116
H      6.491057    1.594239   -2.699746
H      6.273551   -0.262365   -1.078101
H     -2.918390   -5.467573    0.896415
H     -4.790174   -5.968248    2.391608
