23

C      2.564543   -2.276481   -3.512850
C      1.177112   -1.655947   -3.539751
O      1.097162   -0.629105   -2.557667
C     -0.067090    0.109389   -2.330014
O     -1.110444   -0.108677   -3.004668
C     -0.086665    1.132202   -1.240660
C     -0.512648    0.499096    0.051304
O     -1.725115    0.559792    0.390980
C      0.445016   -0.228049    0.906909
C      0.137418   -0.872980    2.100321
C      1.243272   -1.487558    2.700714
C      2.424568   -1.331879    1.987862
S      2.091300   -0.428755    0.610111
H      2.630739   -3.080914   -4.275365
H      2.765924   -2.710809   -2.510564
H      3.330139   -1.503385   -3.735640
H      0.420252   -2.441214   -3.324353
H      0.983919   -1.227959   -4.547294
H      0.921187    1.586375   -1.133817
H     -0.790021    1.950247   -1.509620
H     -0.856292   -0.902275    2.528085
H      1.183044   -2.033259    3.632853
H      3.391049   -1.725211    2.272242
