39

O      4.409461    0.730380   -1.340621
C      3.685349    0.045287   -0.635696
C      2.297247   -0.352404   -1.074071
C      1.670780   -1.198828    0.066187
C      2.576292   -2.435755    0.307624
C      4.017786   -1.992677    0.697005
C      4.127209   -0.449597    0.720423
C      3.108934    0.092414    1.750660
C      1.653443   -0.359193    1.381257
N      0.753084    0.792690    1.242597
C     -0.671969    0.653837    1.246179
O     -1.202124   -0.469336    1.469794
O     -1.467829    1.777596    0.999343
C     -2.888454    1.721092    0.889639
C     -3.287247    1.033704   -0.387965
C     -3.900828   -0.229996   -0.360924
C     -4.243959   -0.871055   -1.555529
C     -3.974391   -0.258079   -2.782332
C     -3.359896    0.996726   -2.816769
C     -3.015110    1.641104   -1.624556
H      1.686118    0.554512   -1.269444
H      2.354713   -0.949230   -2.009741
H      0.646667   -1.526856   -0.214148
H      2.143375   -3.064504    1.116224
H      2.609255   -3.058600   -0.613051
H      4.282619   -2.401803    1.696543
H      4.747629   -2.404359   -0.034456
H      5.161490   -0.122848    0.965148
H      3.372411   -0.288624    2.761851
H      3.199416    1.199309    1.797888
H      1.276224   -0.999670    2.210422
H      1.142790    1.750873    1.095410
H     -3.317767    1.212238    1.780581
H     -3.285469    2.758113    0.879626
H     -4.110182   -0.720057    0.581770
H     -4.716865   -1.844292   -1.530197
H     -4.239692   -0.756138   -3.705907
H     -3.148617    1.469175   -3.767350
H     -2.533852    2.610617   -1.663599
