123

C     -0.591167   -0.879997    1.391423
C     -0.790229   -0.561022    2.926339
C      0.514540   -0.682668    3.756196
C     -1.853593   -1.505449    3.583500
C     -2.581579   -0.846569    4.769667
C     -3.684102    0.122115    4.308100
C     -4.470142    0.727780    5.481036
C     -3.661285    1.781716    6.251888
C     -4.512099    2.445901    7.330244
C     -1.907460   -0.843005    0.626793
O     -2.909789   -0.319185    1.096235
C     -1.894221   -1.279429   -0.808640
O     -3.205476   -1.270155   -1.319873
C     -0.904463   -0.385333   -1.634522
C     -1.504969    0.251676   -2.914878
O     -0.445756    0.669169   -3.761274
Si    -0.192062   -0.401764   -5.111567
C     -1.568453   -0.140689   -6.353929
C     -0.196589   -2.211005   -4.605286
C      1.488233    0.042594   -5.878426
C      1.773256   -0.864934   -7.087160
C      1.464193    1.511732   -6.331421
C      2.587973   -0.145723   -4.818136
C     -2.367753    1.469777   -2.551736
C     -3.003464    2.089103   -3.804343
C     -1.532925    2.508964   -1.802657
C     -0.952532    1.957501   -0.477783
O     -0.145667    2.966277    0.115530
Si    -1.053683    4.249256    0.903397
C     -2.837875    3.801316    1.302272
C     -1.071352    5.724812   -0.259527
C     -0.189244    4.800073    2.519902
C      1.337386    4.728630    2.336928
C     -0.585252    6.251373    2.853855
C     -0.620722    3.897911    3.692039
C     -0.099470    0.647901   -0.755331
C      0.523533   -0.077372    0.539435
C      1.295310    0.986427    1.358111
C      1.642928   -1.080295    0.075954
O      1.103984   -2.259337   -0.495362
C      2.087113   -2.964726   -1.227411
C      3.091841   -3.622485   -0.317045
C      4.459734   -3.332251   -0.435485
C      5.386241   -3.934769    0.421919
C      4.955166   -4.836776    1.411627
O      5.844168   -5.463127    2.297882
C      7.257461   -5.284406    2.279538
C      3.589859   -5.126125    1.521946
C      2.662481   -4.526180    0.666256
H     -0.314808   -1.955126    1.403597
H     -1.145822    0.486156    2.999196
H      1.252976   -1.343808    3.260627
H      0.955957    0.315599    3.945048
H      0.342389   -1.103538    4.769435
H     -2.612595   -1.883798    2.874930
H     -1.357013   -2.433514    3.941914
H     -3.046386   -1.647881    5.382053
H     -1.849544   -0.320521    5.412277
H     -3.257256    0.940337    3.692062
H     -4.400679   -0.436595    3.667259
H     -5.383541    1.210678    5.069223
H     -4.798689   -0.079568    6.170331
H     -3.292604    2.561681    5.550980
H     -2.786298    1.308156    6.740913
H     -4.884983    1.687259    8.051112
H     -5.376473    2.970741    6.870366
H     -3.898267    3.188185    7.882489
H     -1.514644   -2.330182   -0.811476
H     -3.266364   -2.005623   -1.984219
H     -0.155741   -1.083542   -2.047104
H     -2.185334   -0.478089   -3.409495
H     -1.386763   -0.758667   -7.256857
H     -1.617241    0.929444   -6.640724
H     -2.536814   -0.438633   -5.903555
H     -0.060601   -2.845091   -5.504861
H      0.628393   -2.410380   -3.893956
H     -1.162814   -2.477287   -4.130739
H      0.989089   -0.746809   -7.864766
H      2.753129   -0.605111   -7.543582
H      1.811842   -1.932086   -6.779847
H      0.688693    1.675145   -7.109096
H      1.249692    2.186702   -5.474334
H      2.445013    1.801984   -6.764055
H      3.579532    0.135922   -5.233787
H      2.645977   -1.205402   -4.490702
H      2.391219    0.488372   -3.926452
H     -3.202608    1.155476   -1.890341
H     -3.674184    2.926680   -3.521914
H     -2.228248    2.478458   -4.495389
H     -3.612884    1.335266   -4.341115
H     -2.199966    3.364605   -1.593317
H     -0.705272    2.881992   -2.445767
H     -1.785349    1.684415    0.192685
H     -3.399601    3.551560    0.382835
H     -2.865886    2.932981    1.991204
H     -3.328711    4.668393    1.787996
H     -1.490239    5.452687   -1.246491
H     -1.693001    6.533190    0.176625
H     -0.032967    6.089869   -0.399312
H      1.671238    3.684514    2.167807
H      1.854068    5.109508    3.246785
H      1.657936    5.347971    1.470473
H     -0.196301    6.956493    2.089592
H     -0.158989    6.554629    3.833060
H     -1.690016    6.359561    2.906515
H     -0.426114    2.829641    3.477492
H     -1.704827    4.017363    3.904954
H     -0.064667    4.166197    4.616407
H      0.755991    0.988932   -1.383043
H      1.879925    1.649306    0.687054
H      2.057827    0.553863    2.034124
H      0.609704    1.599259    1.957750
H      2.330209   -0.551720   -0.628837
H      2.247797   -1.388497    0.959088
H      1.573652   -3.763465   -1.804389
H      2.573661   -2.314014   -1.988890
H      4.810386   -2.637900   -1.189578
H      6.432808   -3.687778    0.306124
H      7.509916   -4.212715    2.431764
H      7.708266   -5.874556    3.103120
H      7.674439   -5.643487    1.313669
H      3.246434   -5.820285    2.277249
H      1.610322   -4.758219    0.774588
