123

C      1.848018   -0.507289    2.217127
C      3.406356   -0.421783    2.521094
C      3.798226   -1.516610    3.542431
C      3.952280    0.974780    2.982204
C      5.464784    1.029908    3.303627
C      6.409829    0.610805    2.160033
C      6.311073    1.461835    0.878756
C      6.521205    2.972684    1.077768
C      7.908515    3.313988    1.619481
C      0.931693   -0.117383    3.358270
O      1.356955    0.415539    4.371723
C     -0.519703   -0.503907    3.296906
O     -1.268999    0.503604    3.922982
C     -0.971054   -0.765492    1.824386
C     -2.512034   -0.850762    1.623843
O     -2.751331   -1.467516    0.367103
Si    -3.634010   -2.975661    0.438840
C     -4.235316   -3.276000   -1.308967
C     -5.183806   -2.870142    1.493789
C     -2.559672   -4.463198    0.977415
C     -2.200911   -4.352063    2.471630
C     -3.343544   -5.770783    0.758138
C     -1.276426   -4.506132    0.129457
C     -3.161964    0.563655    1.632986
C     -4.654785    0.513553    1.286058
C     -2.437169    1.537355    0.692046
C     -0.909823    1.627827    0.939743
O     -0.382528    2.499919   -0.040681
Si    -0.414596    4.197169    0.398730
C      1.360234    4.801116    0.417283
C     -1.090952    4.574059    2.116836
C     -1.396349    5.151967   -0.937688
C     -1.377429    4.338322   -2.245066
C     -2.857248    5.363472   -0.492428
C     -0.751777    6.527783   -1.186900
C     -0.293539    0.189945    0.794389
C      1.307639   -0.002973    0.800449
C      2.037378    1.273916    0.350525
C      1.662786   -1.105252   -0.255453
O      1.245506   -0.714074   -1.549805
C      1.450783   -1.769824   -2.462733
C      0.863930   -1.377269   -3.785163
C     -0.486679   -1.635188   -4.060588
C     -1.052196   -1.226823   -5.272148
C     -0.272054   -0.545590   -6.224966
O     -0.790959   -0.119674   -7.456554
C     -2.130214   -0.340555   -7.886834
C      1.071837   -0.275599   -5.938689
C      1.635718   -0.679047   -4.724435
H      1.669909   -1.603644    2.185235
H      3.933235   -0.685455    1.582322
H      3.426892   -1.264307    4.559055
H      3.388346   -2.505326    3.249390
H      4.897951   -1.646555    3.582781
H      3.441087    1.307187    3.903043
H      3.754619    1.760072    2.237677
H      5.679990    0.396739    4.189836
H      5.720296    2.060678    3.627293
H      7.454579    0.649832    2.539504
H      6.227680   -0.451273    1.895112
H      5.326342    1.300838    0.403216
H      7.069535    1.092509    0.155154
H      6.403820    3.469313    0.090729
H      5.739508    3.393957    1.742323
H      8.048276    4.414899    1.609010
H      8.695755    2.847580    0.988337
H      8.017682    2.960881    2.666584
H     -0.619836   -1.458073    3.867756
H     -1.941748    0.058455    4.501383
H     -0.591375   -1.778005    1.585261
H     -2.932307   -1.424051    2.481487
H     -4.901732   -4.161705   -1.332212
H     -4.800860   -2.384072   -1.655743
H     -3.369495   -3.438219   -1.981778
H     -5.696491   -3.852701    1.498651
H     -5.876494   -2.126588    1.057894
H     -4.940074   -2.591554    2.539543
H     -1.584414   -3.456928    2.678328
H     -1.619628   -5.240498    2.799213
H     -3.120288   -4.294654    3.092101
H     -2.736730   -6.649024    1.074650
H     -4.283281   -5.776189    1.350570
H     -3.599864   -5.911241   -0.313168
H     -0.721667   -3.552624    0.192938
H     -1.514148   -4.690249   -0.937798
H     -0.606289   -5.322363    0.474774
H     -3.128229    0.997059    2.649353
H     -5.087637    1.537526    1.303560
H     -5.197308   -0.083921    2.047445
H     -4.819203    0.081995    0.276794
H     -2.618138    1.238922   -0.365010
H     -2.889908    2.536809    0.826845
H     -0.692045    1.982638    1.966252
H      1.847389    4.539649   -0.542750
H      1.391808    5.901399    0.561934
H      1.909741    4.332750    1.256028
H     -1.096808    5.673072    2.266610
H     -2.118711    4.191694    2.235074
H     -0.433839    4.120443    2.887453
H     -1.909180    4.886297   -3.052660
H     -1.885192    3.359278   -2.105564
H     -0.333453    4.153739   -2.575743
H     -3.369749    4.396021   -0.334259
H     -3.423111    5.920859   -1.270762
H     -2.901271    5.954546    0.447982
H     -1.340750    7.104250   -1.933706
H     -0.709874    7.117884   -0.245749
H      0.277802    6.418075   -1.589019
H     -0.649738   -0.143534   -0.204788
H      1.697643    1.610560   -0.649386
H      1.879793    2.075676    1.093181
H      3.116407    1.086748    0.219130
H      2.759737   -1.289624   -0.262592
H      1.164931   -2.055700    0.035882
H      2.539535   -1.972036   -2.583560
H      0.957727   -2.709668   -2.118936
H     -1.107011   -2.145001   -3.332122
H     -2.094590   -1.445365   -5.458604
H     -2.259087    0.093171   -8.901439
H     -2.338209   -1.430766   -7.936362
H     -2.842612    0.154332   -7.192201
H      1.680295    0.259348   -6.656560
H      2.674846   -0.448939   -4.518519
