25

C     -0.689937   -3.485789    1.209777
O     -0.827899   -2.165588    0.694057
C      0.234456   -1.374323    0.222999
C      1.555620   -1.844650    0.228905
C      2.594093   -1.036717   -0.218632
C      2.350311    0.259995   -0.675976
I      4.089546    1.327153   -1.285136
C      1.021850    0.765015   -0.696400
C     -0.039378   -0.078070   -0.261916
C     -1.468612    0.428255   -0.227295
C     -1.716802    1.522768   -1.264686
C     -0.717347    2.659914   -1.086087
C      0.689164    2.143980   -1.168360
O      1.575515    2.920861   -1.608530
H     -0.271992   -4.158278    0.431180
H     -0.032592   -3.479552    2.104771
H     -1.689276   -3.864797    1.506374
H      1.794497   -2.837219    0.585195
H      3.604997   -1.424034   -0.200714
H     -2.180959   -0.399314   -0.434742
H     -1.685560    0.821875    0.789425
H     -2.749291    1.916828   -1.146524
H     -1.623832    1.097427   -2.288744
H     -0.869108    3.146113   -0.098198
H     -0.889163    3.420041   -1.879024
