56

C     -2.572634    2.621931    2.299723
C     -3.407400    1.455310    2.903698
C     -2.917690    1.196298    4.332992
O     -2.526170   -0.141127    4.527764
C     -1.792610    2.144292    4.532493
O     -1.110671    2.147283    5.547147
C     -1.627758    3.142762    3.431757
C     -2.114544    4.512801    3.949462
C     -0.141692    3.267321    2.993391
C      0.425405    2.045466    2.237857
C     -0.613083    1.281349    1.370007
C     -0.034996    0.602921    0.131728
C     -0.934403    0.140110   -0.848499
C     -0.460699   -0.546101   -1.976552
C      0.903694   -0.802069   -2.135997
O      1.319747   -1.480428   -3.292929
C      2.658351   -1.897571   -3.571076
C      2.760660   -2.395142   -5.004549
C      3.842815   -3.456406   -4.980134
C      3.745150   -4.102379   -3.607052
C      3.076610   -3.079395   -2.690841
C      1.798881   -0.386523   -1.135299
C      1.332024    0.284832   -0.002690
C     -2.411480    0.292887   -0.616291
C     -2.739454    1.705413   -0.125161
C     -1.798757    2.220747    1.007846
H     -3.284446    3.425390    1.999038
H     -3.340090    0.527558    2.297860
H     -4.481570    1.743429    2.930356
H     -3.721795    1.440969    5.060388
H     -1.712519   -0.310000    3.986501
H     -2.073130    5.271365    3.138109
H     -1.477238    4.864836    4.789719
H     -3.164490    4.447588    4.310712
H     -0.045396    4.153364    2.325990
H      0.503411    3.478396    3.874843
H      1.248281    2.436845    1.602441
H      0.873553    1.338208    2.970019
H     -1.005307    0.451379    1.988955
H     -1.155247   -0.901292   -2.728099
H      3.365509   -1.047252   -3.442555
H      1.799190   -2.858705   -5.320725
H      3.017450   -1.570746   -5.704574
H      4.838772   -2.973917   -5.097037
H      3.698181   -4.201559   -5.792555
H      4.753252   -4.382521   -3.230053
H      3.117338   -5.018942   -3.670065
H      2.192610   -3.538300   -2.195204
H      3.788353   -2.742671   -1.906299
H      2.857399   -0.587589   -1.212248
H      2.049077    0.534350    0.766449
H     -2.732456   -0.451992    0.142886
H     -2.985056    0.094652   -1.548189
H     -3.806138    1.735856    0.185092
H     -2.660154    2.392767   -0.997267
H     -1.351612    3.156937    0.600367
