38

O     -1.767490    3.490921    3.920142
C     -0.806641    3.299055    3.127553
C     -0.409281    4.407369    2.204817
C     -0.576695    4.003445    0.742208
N      0.346346    2.942317    0.319217
C      0.593688    2.687108   -1.053247
O     -0.111679    3.167707   -1.980390
C      1.784150    1.853066   -1.288251
C      2.088653    1.301808    0.112648
O      1.522569    0.002039    0.213085
C      2.492069   -0.989184   -0.052313
C      1.815347   -2.327958   -0.084359
C      1.633271   -3.057504    1.102273
C      0.964719   -4.285586    1.077859
C      0.462810   -4.786202   -0.126711
C      0.623706   -4.056825   -1.308090
C      1.291566   -2.828265   -1.288019
C      1.388957    2.287898    1.116022
O      2.321299    3.256588    1.533871
C      0.819376    1.552856    2.325366
C     -0.110176    2.001159    3.180538
H      0.624880    4.739910    2.422518
H     -1.062307    5.288071    2.392884
H     -0.400198    4.906881    0.118262
H     -1.621981    3.669314    0.563715
H      1.570049    1.049929   -2.026474
H      2.618878    2.492659   -1.647038
H      3.192429    1.307794    0.291256
H      3.269690   -0.990113    0.745168
H      2.995982   -0.807652   -1.029865
H      2.006978   -2.675056    2.044190
H      0.831792   -4.847027    1.993608
H     -0.055829   -5.736035   -0.143651
H      0.226914   -4.441281   -2.238805
H      1.399146   -2.267450   -2.208364
H      3.004472    2.799751    2.092184
H      1.244643    0.584404    2.562286
H     -0.393694    1.337286    3.989232
