38

O      1.972156   -3.047847    0.570388
C      1.840527   -1.804177    0.718857
C      2.220099   -1.200929    2.048177
C      1.639270    0.191958    2.277122
N      0.213702    0.182773    1.970415
C     -0.781411   -0.376752    2.809308
O     -0.584714   -0.654085    4.022314
C     -2.066897   -0.592959    2.113908
C     -1.689564   -0.407463    0.632591
O     -1.482881   -1.694326    0.061303
C     -2.466351   -2.003820   -0.906205
C     -2.094573   -1.407566   -2.237221
C     -1.003047   -1.923012   -2.955184
C     -0.620266   -1.342037   -4.167821
C     -1.322102   -0.242689   -4.669791
C     -2.406823    0.278303   -3.958813
C     -2.791952   -0.299039   -2.744805
C     -0.353806    0.405818    0.643876
O     -0.629442    1.778085    0.488199
C      0.576068   -0.003712   -0.487926
C      1.477127   -0.998907   -0.463967
H      3.327564   -1.144999    2.113191
H      1.867274   -1.873621    2.860054
H      1.798049    0.498628    3.333385
H      2.160364    0.932273    1.631636
H     -2.795793    0.182224    2.433911
H     -2.470149   -1.607873    2.321351
H     -2.480321    0.192359    0.119417
H     -2.502576   -3.108268   -1.016383
H     -3.490601   -1.704018   -0.582641
H     -0.443422   -2.766199   -2.569198
H      0.223359   -1.741132   -4.715884
H     -1.023689    0.207234   -5.607823
H     -2.946837    1.132426   -4.346461
H     -3.628192    0.121109   -2.200096
H     -1.189385    2.068542    1.255649
H      0.400401    0.471456   -1.446321
H      1.939699   -1.276532   -1.403374
