30

C      0.418081    1.598348    1.557138
C     -0.352938    0.326985    1.133378
C     -1.133232   -0.221026    2.349933
C     -1.339594    0.639166    0.049120
O     -2.122633    1.576639    0.106804
C     -1.331926   -0.330861   -1.082403
C     -0.893939    0.361867   -2.389153
C     -0.928222   -0.577373   -3.565088
C     -2.078743   -1.032444   -4.069551
C     -0.348459   -1.416235   -0.612278
C      0.547580   -0.775812    0.468659
O      0.950436   -1.763669    1.387513
C      1.753828   -0.224104   -0.199934
C      2.734456    0.219673   -0.743784
H     -0.258018    2.312393    2.075209
H      0.843755    2.123667    0.675315
H      1.243865    1.332819    2.251199
H     -1.677373   -1.153406    2.084991
H     -1.877978    0.523471    2.706415
H     -0.444544   -0.441293    3.193100
H     -2.350365   -0.762777   -1.200756
H     -1.563824    1.223996   -2.601635
H      0.136171    0.763466   -2.280420
H      0.007327   -0.869975   -4.032585
H     -3.032011   -0.742746   -3.638088
H     -2.069964   -1.698695   -4.925944
H     -0.936357   -2.242989   -0.153721
H      0.236487   -1.862737   -1.447531
H      1.523491   -1.321910    2.068654
H      3.594215    0.609828   -1.221432
