23

C      0.719147    0.181678   -1.665118
C      0.260025    0.990268   -0.428023
C      1.500529    1.501221    0.336591
C     -0.587193    2.129178   -0.908232
O     -0.135953    3.107684   -1.484926
C     -2.040556    1.953280   -0.650905
C     -2.145213    0.546092   -0.065968
C     -0.743414    0.207361    0.490562
O     -0.654195    0.628600    1.834776
C     -0.528914   -1.253516    0.481239
C     -0.354995   -2.446759    0.475945
H      1.291537    0.828106   -2.365443
H     -0.154081   -0.233709   -2.213401
H      1.380847   -0.658000   -1.362728
H      2.030981    0.650132    0.814657
H      1.220894    2.234780    1.122235
H      2.205842    2.008506   -0.356631
H     -2.386170    2.713751    0.081862
H     -2.622385    2.036758   -1.594027
H     -2.927261    0.496283    0.723294
H     -2.423375   -0.158910   -0.882529
H     -0.927110    1.582057    1.887742
H     -0.202028   -3.493790    0.470685
