23

C      0.171625    1.564951    0.583801
C     -0.414491    0.133492    0.563665
C     -0.618764   -0.354536    2.013885
C     -1.719540    0.172900   -0.171260
O     -2.735385    0.677999    0.283439
C     -1.665785   -0.433395   -1.524979
C     -0.184869   -0.739388   -1.725561
C      0.420514   -0.864847   -0.314953
O      0.230156   -2.199877    0.103907
C      1.872744   -0.562508   -0.358991
C      3.053120   -0.318968   -0.394888
H      0.357011    1.932486   -0.448665
H     -0.530877    2.269071    1.080406
H      1.129497    1.588948    1.146107
H     -1.177200   -1.314968    2.040189
H     -1.202696    0.389030    2.598337
H      0.363781   -0.494396    2.513218
H     -2.033265    0.278670   -2.295002
H     -2.268903   -1.366558   -1.541287
H      0.282413    0.107219   -2.279112
H     -0.045304   -1.667981   -2.321970
H      0.776267   -2.358256    0.918895
H      4.088870   -0.104641   -0.426152
