25

C     -2.373761    1.239806    2.604382
C     -1.704787    1.643855    1.275500
C     -2.245450    3.000890    0.791980
C     -0.142707    1.645765    1.293880
C      0.446954    0.364051    1.916773
C      0.149139   -0.656666    0.813980
C     -0.489609    0.256970   -0.239571
C     -0.403731   -0.250883   -1.678090
O      0.188786    1.469194   -0.059771
C     -1.868073    0.610307    0.218102
O     -2.914887    0.091097   -0.140034
H     -1.966701    1.851696    3.437150
H     -3.471353    1.404102    2.550267
H     -2.222586    0.163831    2.832216
H     -2.032301    3.786972    1.547605
H     -3.344446    2.948322    0.635463
H     -1.773164    3.301760   -0.168432
H      0.299881    2.573016    1.718033
H      1.545944    0.482386    2.039923
H      0.009170    0.088057    2.896655
H     -0.546879   -1.453106    1.159713
H      1.092973   -1.109424    0.437869
H      0.658455   -0.395525   -1.968320
H     -0.863416    0.485722   -2.370990
H     -0.937804   -1.220104   -1.773060
