46

C     -5.490487   -3.111370   -3.639401
O     -5.718509   -2.012457   -2.764818
C     -5.074605   -1.887513   -1.529567
O     -4.268274   -2.772388   -1.130739
C     -5.307373   -0.666099   -0.699390
C     -4.306404    0.400113   -1.057362
O     -4.328824    0.892630   -2.175369
C     -3.287837    0.886175   -0.057862
C     -1.865933    0.441729   -0.449156
O     -1.779616   -0.962071   -0.479262
C     -0.817899    1.045918    0.514046
C      0.630436    0.551435    0.266298
C      1.125634    0.952362   -1.135661
C      1.561144    1.121194    1.365044
C      3.008683    0.555786    1.380220
O      4.019418    1.426482    1.833675
S      4.599738    2.349623    0.530347
C      5.619546    1.376190   -0.557009
O      3.472630    2.956909   -0.257065
O      5.445132    3.460901    1.088132
C      3.455840   -0.775423    0.758379
C      3.056781   -0.733948    2.211143
H     -4.418633   -3.146493   -3.935122
H     -6.106433   -2.981188   -4.556772
H     -5.775484   -4.062341   -3.137662
H     -6.334510   -0.281613   -0.882578
H     -5.236150   -0.935671    0.376584
H     -3.335318    1.997041   -0.017691
H     -3.530058    0.507210    0.958752
H     -1.663687    0.825167   -1.471900
H     -1.933405   -1.293037    0.443821
H     -1.111110    0.787081    1.556902
H     -0.846200    2.155663    0.428935
H      0.627497   -0.555336    0.344869
H      0.557483    0.410578   -1.919234
H      2.193818    0.686453   -1.272521
H      1.013092    2.047532   -1.297093
H      1.604079    2.225063    1.255308
H      1.101470    0.951914    2.365517
H      6.205484    2.049501   -1.218353
H      6.318950    0.759255    0.044442
H      4.981889    0.721479   -1.186192
H      2.730426   -1.316762    0.118621
H      4.548392   -0.919429    0.633305
H      2.095750   -1.259488    2.402217
H      3.918992   -0.836376    2.905992
