27

C      2.523396    2.785557    0.596295
S      0.835776    3.469460    0.698695
C      0.421848    3.296955   -1.080135
F      1.405979    3.907939   -1.839140
F     -0.769306    3.955332   -1.320582
C      0.275667    1.852825   -1.494034
O      0.644786    1.514855   -2.651307
C     -0.376741    0.841849   -0.621165
C     -1.613729    1.159392   -0.032280
C     -2.289698    0.232462    0.759317
C     -1.748607   -1.031154    0.979912
C     -0.513547   -1.378435    0.417320
C      0.191829   -0.441163   -0.387157
C      1.454362   -0.811914   -0.901215
C      1.981613   -2.080697   -0.648932
C      1.270505   -2.998064    0.123094
C      0.030354   -2.650158    0.658095
H      2.499527    1.745964    0.213461
H      2.968315    2.776861    1.612212
H      3.156565    3.415439   -0.061604
H     -2.073799    2.124023   -0.199964
H     -3.243906    0.493630    1.198664
H     -2.293827   -1.736504    1.596056
H      2.054184   -0.127999   -1.484114
H      2.949750   -2.351711   -1.050212
H      1.685786   -3.979048    0.314932
H     -0.501667   -3.373182    1.265204
