72

C      2.613865    3.249239   -0.975276
O      2.266611    4.123171   -2.027429
C      2.782886    3.485263   -3.187946
C      2.936171    2.045003   -2.836849
O      3.322740    1.167770   -3.592610
C      2.436473    1.839706   -1.481319
O      3.165871    0.945598   -0.675540
C      2.573957    0.887549    0.628439
C      1.315380    0.002353    0.666575
O      1.587117   -1.232428    0.045763
Si     0.131499   -2.169442   -0.166418
C      0.624843   -3.607795   -1.231254
C     -0.318690   -4.235850   -2.058841
C      0.051341   -5.338569   -2.834555
C      1.360721   -5.824474   -2.781558
C      2.300802   -5.210285   -1.949404
C      1.934147   -4.107258   -1.172188
C     -1.084712   -1.190733   -1.194469
C     -0.585503   -0.426469   -2.260295
C     -1.450699    0.319533   -3.064758
C     -2.826974    0.280330   -2.833195
C     -3.338644   -0.523585   -1.811985
C     -2.473753   -1.270151   -1.005537
C     -0.483214   -2.889495    1.508835
C     -1.294754   -1.863367    2.326510
C      0.744338   -3.321218    2.332025
C     -1.359337   -4.131961    1.251674
C      2.327397    2.286145    1.298981
C      1.862157    3.423045    0.342334
S      0.065134    3.596506    0.166392
O     -0.244646    5.053898   -0.030942
O     -0.457746    2.855161   -1.031011
C     -0.797423    3.054127    1.605531
C     -0.610415    3.727556    2.821169
C     -1.290422    3.309005    3.968826
C     -2.167949    2.223039    3.905553
C     -2.366244    1.554580    2.694476
C     -1.681075    1.964494    1.546700
H      3.696235    3.419272   -0.740998
H      2.067767    3.600588   -4.029226
H      3.766782    3.924882   -3.459175
H      1.386304    1.524016   -1.587198
H      3.314284    0.367695    1.276369
H      0.469288    0.537513    0.191108
H      1.075610   -0.162539    1.733472
H     -1.339828   -3.879364   -2.101542
H     -0.678139   -5.819005   -3.473655
H      1.645420   -6.679162   -3.381414
H      3.312934   -5.590990   -1.904102
H      2.671173   -3.647440   -0.525995
H      0.475096   -0.413301   -2.474462
H     -1.054055    0.921408   -3.872135
H     -3.497904    0.856101   -3.457367
H     -4.407725   -0.577392   -1.651952
H     -2.902562   -1.913556   -0.256890
H     -2.155541   -1.470209    1.758413
H     -1.693897   -2.335569    3.249996
H     -0.678299   -1.006549    2.650713
H      0.429259   -3.766552    3.300568
H      1.342155   -4.080256    1.783235
H      1.401329   -2.453555    2.552206
H     -0.775771   -4.936156    0.755413
H     -1.744847   -4.544670    2.208982
H     -2.228995   -3.888553    0.610218
H      3.302362    2.608284    1.728380
H      1.649760    2.187643    2.170637
H      2.202415    4.382379    0.791362
H      0.066831    4.570290    2.879677
H     -1.139139    3.828010    4.906387
H     -2.696618    1.901862    4.793631
H     -3.052578    0.719576    2.645487
H     -1.845527    1.434103    0.617807
