54

C      3.426265   -3.701324    1.552454
O      2.665404   -4.836160    1.960629
C      1.898890   -3.745274    1.639575
C      1.470989   -2.556576    2.531599
O      2.305398   -2.369978    3.653340
C      0.023678   -2.745664    3.050701
C     -1.034823   -2.517761    1.976837
C     -0.735147   -1.209212    1.244243
C     -1.824152   -0.930477    0.192046
C     -1.575033    0.376023   -0.587756
C     -0.901431    0.123143   -1.946275
O     -0.343465    1.310400   -2.479533
C     -1.331360    2.149207   -3.053979
C     -1.670710    3.274602   -2.113178
C     -3.006557    3.536895   -1.763748
C     -3.313455    4.584572   -0.889816
C     -2.292109    5.380787   -0.364635
C     -0.962016    5.132761   -0.714855
C     -0.651014    4.086831   -1.589439
O      0.524693   -1.319861    0.614048
C      1.586698   -1.308323    1.564177
C      2.965241   -1.275347    0.757561
C      2.817942   -0.452982   -0.546644
C      4.053256   -0.581816    1.609457
C      3.429843   -2.711772    0.424749
O      3.843278   -3.030903   -0.680700
H      4.015849   -3.352308    2.422691
H      1.317781   -3.938464    0.704281
H      2.268916   -3.202352    4.194544
H     -0.160826   -2.019688    3.874254
H     -0.098669   -3.764929    3.478565
H     -2.036661   -2.470214    2.457276
H     -1.030859   -3.367883    1.259713
H     -0.751784   -0.362357    1.971547
H     -2.799219   -0.837818    0.720021
H     -1.915416   -1.792298   -0.506528
H     -0.958304    1.081367    0.013118
H     -2.554545    0.865751   -0.772027
H     -1.607165   -0.370012   -2.653423
H     -0.070218   -0.595285   -1.808733
H     -2.248617    1.607018   -3.384027
H     -0.904704    2.596569   -3.976024
H     -3.809205    2.927930   -2.159852
H     -4.343491    4.779219   -0.619579
H     -2.531151    6.190472    0.312847
H     -0.171670    5.750752   -0.307644
H      0.384064    3.905355   -1.853105
H      1.518970   -0.374996    2.171715
H      2.179046   -0.986913   -1.280390
H      2.364083    0.539375   -0.334211
H      3.807320   -0.289130   -1.027072
H      5.034870   -0.610264    1.087967
H      4.179934   -1.065189    2.597766
H      3.787785    0.482868    1.789349
