81

C     -2.777113   -1.142887    2.918956
C     -3.324781   -1.742261    1.633530
C     -2.852739   -0.746077    0.546817
O     -2.159968   -1.411778   -0.488003
Si    -3.077314   -1.575584   -1.952808
C     -1.956312   -2.563885   -3.089731
C     -4.602760   -2.609936   -1.638392
C     -3.484185    0.121631   -2.767839
C     -2.542504    1.205458   -2.207718
C     -4.956324    0.515659   -2.497707
C     -3.270679    0.026537   -4.286467
C     -1.857680    0.215547    1.244309
C     -1.436622   -0.516521    2.526221
C     -0.313225   -1.578759    2.227450
C      0.962930   -0.995710    1.637893
C      1.894987   -0.437637    2.439968
C      3.186026    0.124045    1.904989
C      3.494016   -0.370906    0.484722
N      2.270072   -0.292271   -0.327900
S      2.620401   -0.648521   -2.002418
O      3.048661   -2.085569   -2.150413
O      1.382180   -0.418589   -2.827242
C      3.890089    0.412333   -2.602212
C      5.074892   -0.116695   -3.135204
C      6.084134    0.737145   -3.590838
C      5.918851    2.126909   -3.526014
C      7.025841    3.039836   -3.964867
C      4.741009    2.654543   -2.978840
C      3.728458    1.801108   -2.520339
C      1.280792   -1.257283    0.178327
C     -1.018088    0.357313    3.684463
O     -0.588501    1.489438    3.498091
C     -0.995867   -0.254204    5.072703
C     -2.266388   -1.105441    5.370361
C     -2.075422   -1.939076    6.636676
C     -2.687810   -2.011330    4.179865
H     -3.486282   -0.316912    3.177694
H     -4.432051   -1.807403    1.668666
H     -2.919348   -2.759037    1.469721
H     -3.724515   -0.152779    0.202787
H     -2.462116   -2.756901   -4.061631
H     -1.026855   -1.978595   -3.248154
H     -1.705276   -3.528065   -2.608879
H     -5.293767   -2.074739   -0.952414
H     -5.106326   -2.811863   -2.606278
H     -4.289220   -3.574301   -1.175968
H     -2.808304    1.484221   -1.165689
H     -2.604980    2.133743   -2.812349
H     -1.487445    0.856526   -2.217518
H     -5.640387   -0.084833   -3.133791
H     -5.252289    0.337343   -1.449553
H     -5.130523    1.592198   -2.709966
H     -2.192660   -0.156366   -4.538778
H     -3.586543    0.987582   -4.780042
H     -3.892193   -0.805516   -4.709202
H     -2.392041    1.161865    1.506360
H     -0.995991    0.498138    0.597548
H     -0.044022   -2.143968    3.147889
H     -0.687388   -2.352943    1.524456
H      1.697886   -0.322360    3.501253
H      4.016851   -0.167011    2.583495
H      3.105999    1.232443    1.893938
H      3.882530   -1.412991    0.517783
H      4.288938    0.275876    0.058159
H      5.228721   -1.185466   -3.191850
H      6.998541    0.316773   -3.988612
H      7.721762    3.205296   -3.115328
H      7.586568    2.588273   -4.805179
H      6.620561    4.020348   -4.308598
H      4.605608    3.725596   -2.910189
H      2.823808    2.223800   -2.093933
H      1.665429   -2.300515    0.088956
H      0.350976   -1.176252   -0.424984
H     -0.904480    0.554873    5.832863
H     -0.085733   -0.890984    5.160371
H     -3.106633   -0.394573    5.563343
H     -1.785405   -1.282973    7.490298
H     -3.035582   -2.445565    6.893893
H     -1.293344   -2.712440    6.485138
H     -1.981816   -2.858829    4.036965
H     -3.690305   -2.444226    4.387591
