81

C      0.522448   -0.572501    1.712405
C     -0.136316    0.533493    0.918716
C      1.073295    1.290048    0.319720
O      1.220765    2.525990    0.988076
Si     2.276558    3.629176    0.143886
C      4.023158    3.399890    0.778039
C      2.307098    3.377411   -1.718160
C      1.668833    5.387170    0.541013
C      1.657251    5.584255    2.067399
C      2.594364    6.434308   -0.104084
C      0.240232    5.558146   -0.004289
C      2.306762    0.364953    0.551704
C      1.708371   -1.021860    0.858578
C      1.408452   -1.691899   -0.541079
C      0.543975   -2.933828   -0.579897
C      1.032733   -4.116842   -0.159160
C      0.216840   -5.379768   -0.179058
C     -1.267282   -5.079583   -0.376035
N     -1.422331   -4.160658   -1.510974
S     -3.116530   -3.987967   -1.895187
O     -3.886041   -3.560387   -0.675746
O     -3.662538   -5.307526   -2.364963
C     -3.329570   -2.796174   -3.175756
C     -3.604252   -1.458696   -2.858949
C     -3.755374   -0.511373   -3.876977
C     -3.641070   -0.894050   -5.222477
C     -3.765354    0.127405   -6.314381
C     -3.342515   -2.228571   -5.536033
C     -3.188100   -3.174738   -4.517198
C     -0.847627   -2.838633   -1.194290
C      2.593183   -1.913093    1.708229
O      3.792419   -1.962715    1.476258
C      2.013163   -2.837258    2.774618
C      0.586962   -2.482920    3.303671
C     -0.135103   -3.740268    3.801193
C     -0.302986   -1.712784    2.299818
H      0.925668   -0.044183    2.617052
H     -0.758484    1.182400    1.573460
H     -0.780007    0.107756    0.118132
H      0.864707    1.422218   -0.764266
H      4.413010    2.417266    0.445668
H      4.025662    3.441336    1.886199
H      4.679759    4.196382    0.374463
H      2.946881    4.150768   -2.188366
H      1.279238    3.450998   -2.127898
H      2.730845    2.379989   -1.954157
H      0.998230    4.835015    2.556957
H      2.680507    5.480870    2.487543
H      1.280093    6.597488    2.325829
H      2.619522    6.318760   -1.208789
H      2.234470    7.461164    0.123415
H      3.629360    6.342630    0.287182
H      0.222078    5.446991   -1.109234
H     -0.153101    6.567411    0.244951
H     -0.444434    4.801954    0.438444
H      2.981012    0.359805   -0.333250
H      2.893662    0.724942    1.427409
H      0.946780   -0.945301   -1.221325
H      2.377767   -1.940582   -1.027009
H      2.072912   -4.195094    0.137458
H      0.578763   -6.023780   -1.008453
H      0.359898   -5.924557    0.778320
H     -1.792944   -6.038248   -0.579374
H     -1.690472   -4.637191    0.555062
H     -3.693543   -1.145149   -1.826691
H     -3.958381    0.519826   -3.614906
H     -2.760441    0.529500   -6.560403
H     -4.422083    0.964787   -5.997496
H     -4.205101   -0.328255   -7.226816
H     -3.225582   -2.536404   -6.567924
H     -2.956706   -4.200148   -4.776011
H     -0.765961   -2.263066   -2.141345
H     -1.515528   -2.264752   -0.517444
H      2.706248   -2.832487    3.644389
H      2.034582   -3.877043    2.388822
H      0.723717   -1.820677    4.189477
H      0.481119   -4.254988    4.568301
H     -0.318694   -4.442596    2.959501
H     -1.109022   -3.467900    4.260298
H     -0.704261   -2.392805    1.536770
H     -1.174159   -1.284393    2.841790
