55

C      0.015882   -2.113717   -0.759025
C     -0.830168   -2.387622   -2.027246
C     -1.660396   -1.154276   -2.445113
C     -2.596677   -1.470205   -3.653826
C     -3.702432   -0.413819   -3.805762
C     -1.857651   -1.650881   -4.991306
C     -0.730220    0.055062   -2.678129
C      0.103914    0.370687   -1.424586
O      0.958841    1.479362   -1.718069
C      1.400157    2.402792   -0.763662
C      2.385698    3.448135   -1.159508
O      0.932374    2.399949    0.406868
C      0.935992   -0.858965   -0.935455
C      2.091558   -1.172821   -1.911101
O      1.547653   -0.528821    0.317850
C      0.868106   -0.560901    1.539231
C     -0.343885   -1.245374    1.658761
C     -0.997455   -1.221472    2.907136
O     -2.094021   -1.817830    3.075530
O     -0.457572   -0.568353    3.932297
C      0.700749    0.085850    3.856519
C      1.211283    0.779150    5.065809
C      2.069649    1.892683    4.982862
N      2.506914    2.508218    6.114015
C      2.137719    2.082590    7.350106
C      1.278900    0.992291    7.484695
C      0.811903    0.343829    6.340449
C      1.408829    0.092836    2.643823
C     -0.847778   -1.994818    0.485321
O     -1.947404   -2.610133    0.550582
H      0.662847   -3.003646   -0.593709
H     -1.502901   -3.254583   -1.848151
H     -0.153884   -2.692567   -2.850946
H     -2.322683   -0.904089   -1.586040
H     -3.114330   -2.430871   -3.434543
H     -4.251078   -0.284418   -2.848689
H     -4.434427   -0.739159   -4.575725
H     -3.283205    0.565389   -4.117521
H     -2.572099   -1.992538   -5.770486
H     -1.063002   -2.419117   -4.910702
H     -1.409670   -0.695224   -5.335279
H     -1.337363    0.952459   -2.920373
H     -0.053944   -0.128557   -3.537926
H     -0.615329    0.665470   -0.627090
H      1.845989    4.367711   -1.466931
H      3.056320    3.683222   -0.306149
H      3.001180    3.084646   -2.008921
H      2.788047   -0.310179   -1.977492
H      2.675381   -2.042992   -1.542187
H      1.734384   -1.406890   -2.932847
H      2.375237    2.293616    4.026799
H      2.506605    2.595159    8.228443
H      0.977638    0.652338    8.467127
H      0.148444   -0.504854    6.452450
H      2.365818    0.587390    2.546912
