54

C      0.965718    0.490364   -1.678412
C      2.184658    1.377547   -1.355631
C      3.409139    0.557022   -1.709319
C      3.005296   -0.878771   -1.419521
O      3.817066   -1.806180   -2.144868
C      5.156164   -2.065326   -1.834724
C      5.936037   -3.009062   -2.684841
O      5.720052   -1.485202   -0.867528
C      1.507250   -0.969001   -1.815529
C      1.358829   -1.433586   -3.288255
C      0.747770   -1.983157   -0.916403
C      0.557829   -1.524891    0.539942
C      0.090126   -0.046322    0.700430
C     -0.221067    0.627100   -0.679577
C     -0.672479    2.104718   -0.537498
C     -1.833975    2.254323    0.447374
C     -1.419293    1.639502    1.758455
C     -1.063815    2.454770    2.768850
C     -0.299970    1.968533    3.922822
O     -0.063745    2.740281    4.889752
C      0.278810    0.592822    3.905131
C     -0.671718   -0.353325    3.173802
C     -1.078212    0.144104    1.744685
C     -2.353606   -0.650810    1.343848
H      0.579512    0.841679   -2.663809
H      2.239782    1.639066   -0.279238
H      2.163391    2.322023   -1.942215
H      3.644468    0.679679   -2.789817
H      4.288974    0.865646   -1.104209
H      3.133692   -1.057395   -0.330210
H      5.246616   -3.691084   -3.225303
H      6.618460   -3.615717   -2.052960
H      6.532734   -2.434442   -3.423266
H      1.946840   -0.782943   -3.970845
H      1.708583   -2.481157   -3.412732
H      0.293616   -1.392153   -3.603320
H     -0.261600   -2.174452   -1.344801
H      1.282805   -2.958537   -0.918507
H     -0.153704   -2.235148    1.002240
H      1.506056   -1.668640    1.100647
H      0.959934    0.501797    1.117313
H     -1.070706    0.087022   -1.148322
H     -0.991086    2.492886   -1.529325
H      0.167486    2.738688   -0.181356
H     -2.739587    1.752563    0.048679
H     -2.087739    3.331948    0.555585
H     -1.272845    3.516689    2.712264
H      0.424575    0.231405    4.946348
H      1.270063    0.613881    3.406348
H     -1.584057   -0.452617    3.805464
H     -0.211284   -1.362104    3.135715
H     -2.623880   -0.530616    0.278190
H     -2.239869   -1.737321    1.536647
H     -3.221655   -0.308113    1.948204
