52

C     -3.211955   -0.818224   -4.262553
O     -3.493883    0.179341   -3.286619
C     -3.047577    0.134841   -1.957643
C     -3.382642    1.193211   -1.108579
C     -2.948938    1.204264    0.219246
C     -2.164151    0.152366    0.725912
C     -1.661436    0.211827    2.124727
O     -2.150574    1.057556    2.922560
C     -0.572662   -0.697156    2.633218
N      0.615431   -0.644454    1.761725
C      1.521525   -1.800984    1.923750
C      2.198496   -1.915002    3.311493
C      1.340564   -2.623126    4.339680
C      0.957797   -4.065873    4.143182
C      0.964069   -1.994403    5.463533
S      1.446343    0.897456    1.837480
O      2.891191    0.747440    1.448173
O      1.377239    1.464336    3.229365
C      0.676106    1.992340    0.694759
C      0.629891    1.646813   -0.661938
C     -0.034044    2.468787   -1.576388
C     -0.647388    3.654489   -1.144753
C     -1.410126    4.506377   -2.114801
C     -0.609537    3.994008    0.216507
C      0.053486    3.169949    1.131062
C     -1.846722   -0.923073   -0.124802
C     -2.279325   -0.930342   -1.454019
H     -3.634232   -1.794518   -3.943656
H     -3.679699   -0.526234   -5.224982
H     -2.115066   -0.906283   -4.412273
H     -3.973696    2.019096   -1.483532
H     -3.208161    2.051184    0.842182
H     -0.306259   -0.407500    3.670409
H     -0.983134   -1.729805    2.669282
H      0.970430   -2.734223    1.679900
H      2.317300   -1.735209    1.150966
H      2.523473   -0.918104    3.674009
H      3.128932   -2.511178    3.193541
H      1.292594   -4.668731    5.013949
H     -0.144848   -4.149893    4.042410
H      1.433299   -4.485906    3.232308
H      0.365972   -2.505636    6.212111
H      1.244027   -0.962081    5.650288
H      1.087625    0.728032   -1.006600
H     -0.080073    2.174576   -2.617643
H     -0.970889    4.431295   -3.132336
H     -2.466624    4.168122   -2.150891
H     -1.381131    5.572905   -1.805668
H     -1.101676    4.891104    0.571239
H      0.062041    3.442632    2.178107
H     -1.262925   -1.761809    0.228990
H     -2.008885   -1.768334   -2.081716
