85

C     -2.246336   -2.039568   -1.247583
C     -1.260660   -3.072896   -0.706899
C     -0.608743   -3.917655   -1.817444
C      0.252299   -3.120300   -2.815841
C      1.514049   -2.531539   -2.170891
C      2.372674   -1.788074   -3.205119
C      3.703458   -1.268770   -2.615088
C      3.713591    0.241958   -2.317369
C      2.792018    0.703244   -1.169595
C      3.333805    0.394863    0.245566
C      2.744388   -0.889770    0.851740
C      3.272693   -1.183984    2.267406
C      2.887418   -0.148705    3.343999
C      1.383384    0.157467    3.449209
C      0.538655   -1.083789    3.780740
C     -0.945757   -0.742699    4.021549
C     -1.829090   -0.888450    2.769394
C     -1.661821    0.249812    1.790294
O     -0.822664    0.134744    0.908793
C     -2.617371    1.446041    1.767673
C     -2.940069    1.941761    3.165879
O     -2.389251    2.979281    3.623245
O     -3.842710    1.225506    3.960392
C     -4.160729    1.603364    5.294165
C     -3.896393    1.062205    1.017400
O     -3.826615    1.585099   -0.291129
C     -2.867968    2.625405   -0.289664
C     -3.567645    4.017061   -0.469163
C     -4.378156    4.000950   -1.784768
C     -4.528531    4.324525    0.699093
C     -2.528403    5.155198   -0.565302
N     -2.089942    2.519630    0.939733
C     -0.761724    3.066039    1.057663
O     -0.096990    2.930917    2.118119
H     -1.711009   -1.213391   -1.757557
H     -2.824130   -1.606341   -0.405841
H     -2.959566   -2.514067   -1.953270
H     -0.492357   -2.569037   -0.086155
H     -1.813207   -3.761093   -0.032209
H      0.019613   -4.704662   -1.345086
H     -1.410022   -4.441052   -2.382529
H     -0.348916   -2.314594   -3.289238
H      0.560990   -3.817281   -3.627035
H      2.109514   -3.352630   -1.715132
H      1.213443   -1.827266   -1.376360
H      1.786965   -0.954956   -3.651960
H      2.611766   -2.496689   -4.028469
H      4.494404   -1.444224   -3.377348
H      4.026141   -1.852079   -1.729715
H      3.418126    0.782440   -3.244307
H      4.757960    0.555490   -2.095533
H      1.755222    0.334496   -1.305218
H      2.718190    1.810311   -1.257372
H      4.444420    0.335905    0.238855
H      3.053616    1.247929    0.899415
H      3.019326   -1.755147    0.221669
H      1.637029   -0.839773    0.857420
H      2.908726   -2.186453    2.580092
H      4.381854   -1.254382    2.229347
H      3.245998   -0.519820    4.328952
H      3.431994    0.800293    3.151725
H      1.247455    0.910176    4.255830
H      1.038224    0.626416    2.511274
H      0.945866   -1.541014    4.708832
H      0.627144   -1.842262    2.975428
H     -1.335403   -1.458189    4.779560
H     -1.057995    0.270725    4.465348
H     -2.889866   -0.943701    3.089978
H     -1.620532   -1.853911    2.259718
H     -4.632283    2.609540    5.302356
H     -4.872929    0.867439    5.721268
H     -3.241138    1.613476    5.916891
H     -4.042983   -0.038007    0.965566
H     -4.803857    1.474918    1.509599
H     -2.188928    2.450373   -1.153432
H     -4.879415    4.978466   -1.953674
H     -3.710984    3.799653   -2.650224
H     -5.162978    3.216138   -1.760010
H     -5.365551    3.595766    0.729961
H     -4.971756    5.337829    0.582471
H     -3.992314    4.297158    1.670515
H     -3.017079    6.110138   -0.854609
H     -2.033687    5.331807    0.411630
H     -1.755985    4.920230   -1.327537
H     -0.314621    3.593989    0.226384
