46

C     -0.975651   -1.619593   -4.150009
C     -0.270455   -2.757250   -3.419818
O      0.574481   -2.243517   -2.393510
C      0.093278   -1.732193   -1.183220
O     -1.131210   -1.808889   -0.891320
C      1.042952   -1.051690   -0.242447
C      1.336895    0.411739   -0.653566
C      1.938286    0.516935   -2.038508
O      1.519025    1.380886   -2.858798
O      2.991214   -0.333427   -2.391938
C      3.585231   -0.321204   -3.684187
C      2.255891    1.057919    0.347549
O      3.387946    0.658638    0.577499
C      1.641971    2.229786    1.058564
C      2.402436    3.518791    0.744014
N      0.289176    2.281947    0.518655
C     -0.796705    3.097465    1.063663
C     -1.796858    2.222934    1.770786
C     -3.028709    1.915438    1.168957
C     -3.932201    1.062863    1.810374
C     -3.611053    0.508047    3.052039
C     -2.386164    0.806163    3.655123
C     -1.480299    1.658793    3.017627
C      0.127587    1.280935   -0.482352
O     -0.929981    1.158936   -1.158344
H     -0.225763   -0.909732   -4.559101
H     -1.651108   -1.075279   -3.457167
H     -1.578085   -2.031404   -4.986730
H      0.356972   -3.313657   -4.147045
H     -1.014436   -3.465233   -2.992986
H      1.989838   -1.633984   -0.218746
H      0.620262   -1.078522    0.787464
H      4.392765   -1.080425   -3.720474
H      2.823159   -0.568342   -4.453979
H      4.021208    0.678489   -3.893538
H      1.615691    2.041407    2.153300
H      1.923068    4.379622    1.254701
H      2.410027    3.709962   -0.351452
H      3.449970    3.440051    1.105091
H     -0.392199    3.838269    1.786622
H     -1.274683    3.671138    0.240548
H     -3.286638    2.328842    0.202236
H     -4.879477    0.828032    1.342540
H     -4.309799   -0.154869    3.545178
H     -2.136486    0.372730    4.614803
H     -0.531479    1.875410    3.492069
