24

C     -0.121952   -0.222307    0.430120
C     -0.224129   -0.007825    1.934079
O     -1.263451   -0.774406    2.479679
C      1.186541   -0.539459    2.386589
C      2.036456   -0.426868    1.131057
O      3.198053   -0.781747    1.014533
C      1.258677    0.328698    0.138026
C      1.221691    0.538145   -1.393161
C     -0.068473    1.377433   -1.417988
C     -0.928447    0.266207   -0.815788
C     -0.610377   -0.776234   -1.870440
C      0.702077   -0.672981   -2.143188
H     -0.127171   -1.347842    0.365136
H     -0.357802    1.073419    2.172775
H     -1.306848   -0.534073    3.441511
H      1.129369   -1.604250    2.700810
H      1.604517    0.082870    3.205934
H      1.391416    1.366159    0.544508
H      2.112846    1.032567   -1.833744
H     -0.054892    2.300112   -0.792127
H     -0.380206    1.672772   -2.449866
H     -2.006472    0.481469   -0.663348
H     -1.299563   -1.479621   -2.325297
H      1.236126   -1.254389   -2.886830
