41

C     -4.924437   -0.072862   -4.919586
O     -4.250436    0.716715   -3.947370
C     -4.139506    0.328969   -2.608949
O     -4.634588   -0.761028   -2.210857
C     -3.384530    1.194025   -1.652428
C     -1.944060    0.767877   -1.595099
O     -1.233831    0.909665   -2.579825
C     -1.357308    0.194153   -0.332060
C     -1.067963    1.279902    0.718862
C      0.061290    2.258922    0.316203
C      1.460773    1.893195    0.864488
C      1.926032    0.554431    0.305768
C      1.886213   -0.621677    1.083565
C      2.280419   -1.846533    0.537068
C      2.710204   -1.917530   -0.789127
C      2.743126   -0.764044   -1.574565
C      2.350565    0.463826   -1.034579
O      2.368277    2.894489    0.444192
C      2.866290    3.487387    1.600886
C      2.480362    2.591068    2.732600
O      1.398024    1.847048    2.277694
H     -4.884975    0.444098   -5.900147
H     -4.429572   -1.062667   -5.014514
H     -5.987238   -0.210765   -4.627431
H     -3.853310    1.123671   -0.647130
H     -3.441993    2.254368   -1.979218
H     -0.438717   -0.378541   -0.570596
H     -2.081215   -0.532348    0.096065
H     -0.828766    0.787376    1.685306
H     -2.000231    1.861078    0.891421
H      0.108348    2.379290   -0.787055
H     -0.201117    3.261728    0.720135
H      1.541194   -0.601006    2.108751
H      2.246845   -2.743501    1.141875
H      3.012598   -2.867657   -1.209971
H      3.068966   -0.821567   -2.605079
H      2.369862    1.343761   -1.665217
H      2.405369    4.491669    1.723712
H      3.970198    3.590606    1.531931
H      2.189263    3.179937    3.628343
H      3.315755    1.904344    2.992754
