23

C      0.683272    3.195652    1.107678
C      0.362667    2.088809    2.067521
O     -0.599091    2.240292    2.866937
C      1.182737    0.860170    2.157655
C      1.622140    0.190171    1.067418
C      1.186594    0.449417   -0.321721
C     -0.175366    0.581901   -0.647759
C     -0.564673    0.789235   -1.974621
C      0.397605    0.844799   -2.986336
C      1.750118    0.683652   -2.673843
C      2.143492    0.476297   -1.347952
N      1.531717    0.419698    3.480936
N      2.192489   -0.598062    3.696884
N      2.851722   -1.613539    3.914443
H     -0.085253    3.236851    0.308549
H      0.686448    4.165438    1.648053
H      1.685247    3.052236    0.651440
H      2.332715   -0.616969    1.194343
H     -0.935041    0.517431    0.121099
H     -1.613163    0.899667   -2.219347
H      0.094639    1.003718   -4.013167
H      2.493811    0.716214   -3.459541
H      3.194721    0.348340   -1.119919
