30

O     -2.890466   -0.758620    1.774786
C     -1.776554   -0.176602    1.676161
C     -0.725366   -0.501456    2.668312
C      0.564588   -0.719179    2.319550
C      1.063664   -0.802338    0.928775
C      2.243627   -0.125965    0.582643
C      2.734053   -0.187426   -0.725404
C      2.061230   -0.940467   -1.691268
C      0.903043   -1.642586   -1.347895
C      0.409868   -1.584404   -0.041017
N     -1.137978   -0.567765    4.043658
N     -0.365540   -0.846300    4.962755
N      0.403862   -1.124173    5.881397
C     -1.580509    0.832355    0.604834
C     -0.683632    1.904401    0.773349
C     -0.491349    2.833505   -0.253285
C     -1.198254    2.710194   -1.451457
C     -2.103193    1.660253   -1.623350
C     -2.298560    0.727724   -0.600060
H      1.309832   -0.833361    3.096654
H      2.772388    0.465152    1.320460
H      3.635840    0.349235   -0.990282
H      2.441790   -0.986461   -2.703404
H      0.389693   -2.235996   -2.093339
H     -0.477659   -2.150049    0.212879
H     -0.132398    2.024689    1.697282
H      0.205351    3.650777   -0.118799
H     -1.047313    3.430086   -2.245409
H     -2.651827    1.566742   -2.551630
H     -2.995522   -0.086167   -0.757132
