30

O      2.015511    0.976418    3.506067
C      1.252792    0.676088    2.547999
C      0.865873   -0.743160    2.378073
C      0.699292   -1.257491    1.138815
C      0.503056   -2.688821    0.833671
C     -0.495199   -3.066542   -0.076630
C     -0.670504   -4.412577   -0.412648
C      0.164080   -5.388556    0.141867
Cl    -0.056312   -7.076309   -0.281856
C      1.181509   -5.015809    1.026263
C      1.358793   -3.670645    1.363927
N      0.731706   -1.530982    3.572929
N     -0.091900   -2.441310    3.679208
N     -0.915274   -3.348715    3.789353
C      0.762808    1.757211    1.657340
C     -0.525534    1.703019    1.092395
C     -0.981140    2.738157    0.270256
C     -0.162941    3.840621    0.012971
C      1.110699    3.912812    0.582039
C      1.571032    2.880193    1.405033
H      0.755572   -0.599531    0.280142
H     -1.144421   -2.319876   -0.517793
H     -1.452325   -4.694972   -1.106148
H      1.839055   -5.765787    1.447054
H      2.164657   -3.394815    2.032737
H     -1.184196    0.868266    1.296737
H     -1.971808    2.688042   -0.162855
H     -0.517868    4.641389   -0.622844
H      1.741909    4.769975    0.386141
H      2.562243    2.952857    1.835511
