30

O      0.309546   -1.613105   -2.642925
C      0.001147   -1.528861   -1.423296
C      0.983675   -1.996456   -0.409440
C      1.337333   -1.250082    0.653097
C      0.896797    0.141181    0.900308
C      0.467892    0.504392    2.186260
C      0.044402    1.811519    2.445844
C      0.064500    2.769503    1.428787
C      0.518692    2.424765    0.153226
C      0.943703    1.119185   -0.110229
N      1.576575   -3.296084   -0.536960
N      1.255928   -4.077303   -1.433807
N      0.936330   -4.858535   -2.328554
C     -1.326411   -0.980747   -1.045878
C     -1.998785   -0.101925   -1.914702
C     -3.238391    0.436760   -1.556861
C     -3.822957    0.098781   -0.334346
C     -3.171633   -0.783102    0.530690
C     -1.932490   -1.325297    0.177522
H      1.973156   -1.701265    1.406354
H      0.442922   -0.229408    2.982701
H     -0.299683    2.081634    3.435815
H     -0.263996    3.780677    1.631238
H      0.546550    3.170697   -0.630471
H      1.312979    0.875302   -1.098190
H     -1.557389    0.182414   -2.861843
H     -3.744671    1.119396   -2.227049
H     -4.781939    0.517998   -0.058648
H     -3.627940   -1.048546    1.475549
H     -1.451151   -2.014247    0.859756
