63

C      1.204550    0.801659    0.180372
C      2.110224    1.729532   -0.636128
C      1.201660    2.378893   -1.651424
C      0.188283    1.291989   -2.059320
C     -1.183365    1.969575   -2.350918
O     -1.179850    2.633109   -3.604590
C     -1.029931    4.030991   -3.459221
S      0.909348    0.419081   -3.531208
C     -0.494069   -0.506807   -4.192910
O     -0.682386   -1.656299   -3.827994
S     -1.394842    0.115912   -5.621155
C     -3.050390    0.116604   -4.860736
C      0.162925    0.347137   -0.849074
C     -0.758417   -0.673830   -0.809376
C     -1.074993   -1.857542    0.117770
C     -2.572402   -1.797587    0.499787
C     -0.786082   -3.164609   -0.666822
C     -0.181171   -4.140610    0.331327
C      0.249730   -3.276344    1.470431
C      1.172744   -3.781484    2.573515
C      0.534483   -4.959540    3.315261
C      2.536973   -4.176609    1.995284
C     -0.271983   -2.036462    1.372965
C     -0.096909   -0.935548    2.380375
O     -0.462024   -1.385058    3.661902
C      1.330674   -0.473266    2.325187
O      1.885703   -0.105296    3.354432
C      1.995975   -0.296310    0.967514
C      3.508134   -0.035103    1.157630
H      0.670318    1.462560    0.904053
H      2.875665    1.148507   -1.199591
H      2.607017    2.495816    0.000174
H      0.707009    3.246764   -1.152955
H      1.786471    2.778282   -2.512724
H     -1.980824    1.208337   -2.397785
H     -1.489852    2.620061   -1.494021
H     -1.752356    4.469807   -2.731766
H      0.012396    4.291620   -3.177094
H     -1.223697    4.505804   -4.442484
H     -3.188373   -0.766213   -4.194853
H     -3.215322    1.055848   -4.293446
H     -3.811698    0.072612   -5.670993
H     -1.419067   -0.719276   -1.658339
H     -3.208087   -1.809836   -0.412545
H     -2.858134   -2.673719    1.127685
H     -2.795901   -0.869109    1.070494
H     -0.031216   -2.987075   -1.467867
H     -1.693590   -3.594862   -1.149633
H     -0.952925   -4.862203    0.678841
H      0.674617   -4.683581   -0.123675
H      1.367600   -2.988716    3.323784
H      0.357619   -5.813312    2.627613
H     -0.437305   -4.646422    3.758069
H      1.204994   -5.296774    4.132396
H      2.449635   -5.070044    1.343387
H      3.254493   -4.406877    2.807885
H      2.952829   -3.339845    1.398778
H     -0.752248   -0.079928    2.095469
H     -0.543904   -0.578612    4.241576
H      1.940506   -1.245540    0.392892
H      4.054724   -0.128267    0.197080
H      3.944231   -0.797546    1.842127
H      3.692498    0.968119    1.597746
