32

O     -1.385088   -0.949847    2.053131
C     -0.657238   -0.002163    1.798807
C     -1.111663    1.388362    2.128680
C      0.074673    2.213984    2.621989
C      1.284417    2.006837    1.705106
O      1.664873    0.640358    1.674061
C      0.670006   -0.176975    1.066461
C      1.185292   -1.633251    1.125456
C      0.374805   -2.585979    0.231687
C      0.055564   -1.995364   -1.112347
C      0.123811   -0.666835   -1.326803
C     -0.219269   -0.083374   -2.672703
C     -0.079206   -1.113165   -3.799385
C     -0.800631   -2.401016   -3.407257
O     -0.318054   -2.865557   -2.147186
O      0.508284    0.209570   -0.304050
H     -1.536894    1.853230    1.213072
H     -1.900173    1.366669    2.912202
H     -0.202008    3.290051    2.642955
H      0.341158    1.900888    3.655449
H      2.134798    2.595311    2.109084
H      1.078648    2.399607    0.684247
H      2.241052   -1.648972    0.773925
H      1.180470   -2.004771    2.173619
H     -0.574101   -2.873346    0.728367
H      0.958803   -3.519837    0.085022
H     -1.265311    0.290497   -2.639931
H      0.448509    0.779328   -2.882730
H     -0.512823   -0.707091   -4.738463
H      0.997331   -1.331795   -3.972691
H     -0.631397   -3.182515   -4.177373
H     -1.892949   -2.209496   -3.331748
