36

C     -3.192587   -1.506473    0.519550
C     -1.800172   -1.180400    1.147260
C     -2.077917   -0.831415    2.643601
C     -0.780311   -2.310591    0.956633
C      0.523673   -1.716690    1.533932
C      0.424039   -0.220054    1.155845
C     -0.919346   -0.153408    0.363854
C     -1.490601    1.272466    0.292591
C     -0.679668   -0.851775   -1.032845
O      0.567487   -0.479455   -1.627057
C      0.399453    0.506585   -2.623214
C     -0.434505   -0.039238   -3.778305
C     -1.484804   -1.003273   -3.230878
O     -1.807252   -0.678112   -1.894609
C     -0.591966   -2.274556   -0.537165
O     -0.308806   -3.244740   -1.222325
H     -3.144304   -2.050390   -0.443438
H     -3.776154   -0.573858    0.372677
H     -3.774677   -2.169553    1.195226
H     -2.492348   -1.720748    3.165008
H     -1.195377   -0.509130    3.224393
H     -2.828262   -0.015301    2.712673
H     -1.075325   -3.300238    1.367227
H      0.571405   -1.854024    2.635377
H      1.426011   -2.188939    1.084678
H      0.404103    0.422536    2.061510
H      1.302191    0.107988    0.561177
H     -1.759602    1.635544    1.305800
H     -0.733514    1.971168   -0.116139
H     -2.397072    1.307451   -0.345961
H      1.398386    0.807235   -3.003337
H     -0.076721    1.417889   -2.205502
H      0.218250   -0.575119   -4.501418
H     -0.925948    0.805879   -4.307913
H     -1.128098   -2.053267   -3.311277
H     -2.404994   -0.929994   -3.848022
