32

C      0.116167    0.894809    0.104126
C      1.458193    1.667430    0.261923
C      2.675927    0.832341   -0.168255
C      1.647685    2.177258    1.671745
C      0.888645    3.158079    2.170575
C     -0.219900    0.704210   -1.350439
O     -0.461926    1.627731   -2.172158
C     -0.215203   -0.707348   -1.660002
C     -0.361383   -1.361313   -2.882421
C     -0.227009   -2.758707   -2.903427
C      0.068445   -3.461043   -1.718023
C      0.217653   -2.771852   -0.502009
C      0.041512   -1.382799   -0.495138
N      0.189090   -0.489809    0.618278
C     -0.069915   -0.827706    1.994865
C     -0.945883   -1.982250    2.373176
O      0.435847   -0.133089    2.914691
H     -0.723987    1.439457    0.588526
H      1.428702    2.559970   -0.403573
H      2.563482    0.492669   -1.219360
H      3.598787    1.448008   -0.105936
H      2.800852   -0.056574    0.486463
H      2.437670    1.765299    2.294502
H      1.056105    3.513058    3.182182
H      0.102081    3.613912    1.576982
H     -0.558010   -0.808428   -3.791776
H     -0.332543   -3.296226   -3.836762
H      0.193949   -4.535606   -1.746276
H      0.485118   -3.310723    0.395219
H     -1.523150   -1.731763    3.288169
H     -1.670210   -2.208168    1.563291
H     -0.321435   -2.874809    2.582799
