32

C     -1.578313    1.156497    4.672160
O     -0.847266    1.795549    3.648311
C     -0.900688    1.029771    2.456254
C     -0.506106    1.925618    1.247206
C      0.465761    1.232368    0.269896
C     -0.211833    0.120097   -0.574802
C     -0.807675    0.626506   -1.900107
C     -2.049069    1.453596   -1.704055
C     -3.333722    0.825550   -1.252088
O     -2.010547    2.657894   -1.905209
C      1.597265    0.655955    1.089134
C      2.848214    0.603396    0.609897
C      1.279316    0.150457    2.472792
O     -0.100270   -0.142114    2.579976
H     -2.661314    1.112961    4.422180
H     -1.185235    0.136755    4.879644
H     -1.473879    1.750200    5.603289
H     -1.945229    0.693708    2.253605
H     -0.000525    2.842259    1.626314
H     -1.416614    2.280605    0.725341
H      0.875789    2.014585   -0.408684
H      0.550668   -0.643385   -0.847179
H     -0.987201   -0.413810    0.015753
H     -1.069905   -0.249381   -2.532098
H     -0.042528    1.208071   -2.459921
H     -3.220393   -0.272891   -1.136494
H     -3.636697    1.258518   -0.275855
H     -4.128350    1.023450   -2.001461
H      3.077463    0.965945   -0.387514
H      3.655739    0.194671    1.209698
H      1.597112    0.892601    3.238698
H      1.840455   -0.789874    2.659944
