32

C     -0.369609   -1.705931    0.913405
C      0.524396   -2.205012   -0.255792
C      1.451073   -3.359438    0.152079
C      1.280437   -1.090725   -0.955394
C      2.312991   -0.438651   -0.408238
C      0.397168   -1.098521    2.059759
O      1.197358   -1.711306    2.815062
C     -0.009594    0.280961    2.226896
C      0.390564    1.223968    3.172367
C     -0.232593    2.481474    3.155963
C     -1.247559    2.757974    2.218952
C     -1.639020    1.782928    1.285073
C     -0.980444    0.546307    1.294167
N     -1.240217   -0.600489    0.473782
C     -2.228892   -0.724833   -0.561944
C     -2.473689    0.375200   -1.544604
O     -2.873111   -1.801298   -0.679001
H     -0.996978   -2.539708    1.298423
H     -0.169180   -2.632150   -1.013400
H      0.860655   -4.174353    0.622366
H      1.956275   -3.772478   -0.747129
H      2.231128   -3.026811    0.866454
H      0.971187   -0.814450   -1.959452
H      2.677125   -0.679164    0.584002
H      2.810222    0.348575   -0.965224
H      1.152300    0.991431    3.905156
H      0.056259    3.235476    3.876546
H     -1.737519    3.722963    2.226239
H     -2.442422    1.996591    0.597689
H     -1.623883    1.089462   -1.549854
H     -2.571632   -0.051161   -2.565092
H     -3.413623    0.905992   -1.287866
