52

C      2.136206    1.141612   -0.866830
C      1.863843    0.613337    0.529349
O      2.816551    0.150862    1.215918
C      0.537908    0.772422    1.173900
C     -0.658740    0.242991    0.628752
C     -0.620840   -0.605715   -0.586270
O     -0.996908   -0.093882   -1.676245
N     -0.263205   -2.008579   -0.533090
C     -0.371168   -2.823853   -1.754299
C      0.793630   -2.550050   -2.700592
C      0.028368   -2.687628    0.742092
C      1.465745   -3.197757    0.772158
C     -1.895145    0.463171    1.298526
C     -3.107233   -0.048011    0.785941
C     -4.311305    0.170633    1.448908
C     -4.340046    0.896756    2.634474
C     -3.159073    1.415846    3.184884
C     -3.245778    2.190141    4.476844
C     -1.922289    1.195445    2.519450
C     -0.712658    1.673478    3.052248
C      0.492204    1.454944    2.394574
C      2.606512    2.623278   -0.951537
C      3.168896    3.197096    0.360376
C      3.699090    2.631331   -2.049322
O      4.111910    1.284698   -2.189196
C      3.245147    0.429514   -1.548151
O      3.377531   -0.821916   -1.581064
H      1.238633    1.031826   -1.503607
H     -0.374436   -3.907740   -1.505434
H     -1.332914   -2.609673   -2.269262
H      0.836403   -1.475547   -2.974394
H      1.749810   -2.844146   -2.221899
H      0.665964   -3.146502   -3.628013
H     -0.669338   -3.542193    0.876570
H     -0.123147   -2.018804    1.613129
H      1.608614   -4.002343    0.021039
H      2.171797   -2.370572    0.556287
H      1.693899   -3.611177    1.777027
H     -3.139233   -0.621389   -0.130957
H     -5.231194   -0.226982    1.039549
H     -5.292653    1.050588    3.126422
H     -2.849899    3.216765    4.328231
H     -2.658894    1.673570    5.265184
H     -4.293178    2.280112    4.835921
H     -0.681047    2.220371    3.984724
H      1.402085    1.837780    2.841111
H      1.755258    3.266761   -1.268091
H      4.000684    2.568056    0.742745
H      3.550329    4.226555    0.191507
H      2.369414    3.264136    1.125128
H      3.262356    2.975048   -3.011659
H      4.572140    3.273123   -1.801751
