52

C      2.353220    3.092824    0.817425
C      1.662870    1.743161    0.941099
O      2.149490    0.866285    1.703541
C      0.324181    1.487116    0.361059
C      0.072040    0.359844   -0.455824
C      1.187680   -0.562145   -0.791247
O      2.185560   -0.100916   -1.409135
N      1.146088   -1.961552   -0.430321
C      0.476129   -2.378600    0.816274
C      1.494481   -2.707400    1.903992
C      1.982607   -2.917949   -1.179959
C      1.222086   -4.197954   -1.522386
C     -1.242695    0.130912   -0.950167
C     -1.522465   -0.941153   -1.823790
C     -2.814450   -1.163269   -2.290828
C     -3.854282   -0.321649   -1.911187
C     -3.618526    0.769828   -1.062413
C     -4.779615    1.659795   -0.693427
C     -2.302348    1.009377   -0.581566
C     -2.019011    2.107322    0.251123
C     -0.727346    2.340624    0.709472
C      3.910693    3.092354    0.901447
C      4.584221    1.826901    0.331242
C      4.324314    4.311444    0.045118
O      3.272332    4.479886   -0.886605
C      2.141747    3.809993   -0.473591
O      1.047724    3.894485   -1.090667
H      1.961532    3.745756    1.627593
H     -0.193224   -1.581631    1.201339
H     -0.171040   -3.260231    0.629475
H      2.071657   -3.616043    1.633912
H      2.193451   -1.856850    2.045313
H      0.966917   -2.900645    2.861658
H      2.318670   -2.470108   -2.140569
H      2.892144   -3.165467   -0.592863
H      1.820024   -4.805379   -2.234163
H      0.247555   -3.953093   -1.994950
H      1.052486   -4.808147   -0.611020
H     -0.747164   -1.610196   -2.167885
H     -3.010554   -1.993514   -2.957303
H     -4.848862   -0.520811   -2.291088
H     -4.590945    2.693127   -1.053175
H     -4.914026    1.666375    0.408705
H     -5.730578    1.309439   -1.148464
H     -2.790635    2.800367    0.557464
H     -0.548974    3.190080    1.357897
H      4.243025    3.231556    1.953937
H      4.181739    1.585099   -0.675022
H      4.449806    0.959078    1.006031
H      5.680677    1.983166    0.244634
H      5.293340    4.183735   -0.483699
H      4.383182    5.216241    0.688392
