48

C     -2.803063    3.303355   -2.765310
O     -1.742357    2.424622   -2.466110
C     -1.598434    2.320970   -1.065326
N     -0.461331    1.438600   -0.763001
C     -0.683908    0.015383   -0.867881
O     -1.540273   -0.420766   -1.684671
O      0.017805   -0.868654   -0.035145
C     -0.121633   -2.295595    0.007931
C      0.848954   -2.812129    1.080808
C     -1.557023   -2.688454    0.406150
C      0.258021   -2.917808   -1.348923
C      0.808341    2.016376   -0.244591
C      0.703479    2.447122    1.258244
C      2.000700    3.071305    1.811384
C      0.269004    1.284809    2.163248
C      1.992832    1.213612   -0.568666
O      2.504341    0.115833   -0.225528
C      2.376840    2.339144   -1.471797
C      1.264937    3.110146   -1.116684
C      1.036118    4.379910   -1.617310
C      2.004901    4.857888   -2.532787
C      3.138538    4.067623   -2.898983
C      3.342833    2.774355   -2.358805
H     -2.586106    4.332529   -2.402013
H     -3.764788    2.935386   -2.343181
H     -2.918596    3.354949   -3.867316
H     -2.519837    1.897442   -0.602476
H     -1.437408    3.323326   -0.610425
H      1.893341   -2.533953    0.822551
H      0.790515   -3.918406    1.172898
H      0.607226   -2.361130    2.067459
H     -1.849888   -2.168105    1.343237
H     -2.285778   -2.418829   -0.384949
H     -1.630383   -3.785157    0.571173
H     -0.469654   -2.641430   -2.138789
H      1.264289   -2.566303   -1.662818
H      0.275103   -4.026929   -1.278883
H     -0.083976    3.228456    1.334816
H      2.296142    3.960127    1.215719
H      2.832203    2.335054    1.800302
H      1.845738    3.409588    2.858185
H      1.004584    0.454167    2.118628
H     -0.731141    0.909249    1.862745
H      0.188616    1.627384    3.216985
H      0.177397    4.969971   -1.328352
H      1.884786    5.843569   -2.962814
H      3.859541    4.467931   -3.599597
H      4.201849    2.169132   -2.615239
