48

C      1.460107   -2.890531    3.308089
O      0.901273   -1.885574    2.492896
C      1.084106   -2.221116    1.134064
N      0.612068   -1.109662    0.287442
C     -0.650136   -1.298797   -0.389989
O     -0.875193   -2.380207   -0.998026
O     -1.620421   -0.285448   -0.348956
C     -2.896104   -0.293667   -1.002754
C     -3.773356   -1.439462   -0.464716
C     -3.574458    1.046545   -0.681212
C     -2.721301   -0.410176   -2.528607
C      1.244080    0.241404    0.384883
C      2.809293    0.199517    0.527381
C      3.449248    1.579958    0.784885
C      3.472631   -0.439976   -0.706370
C      0.816012    1.150368   -0.678174
O      0.918673    1.229671   -1.930312
C      0.171233    1.943067    0.415861
C      0.586377    1.050763    1.415250
C      0.290751    1.226641    2.754325
C     -0.479319    2.374886    3.061543
C     -0.909244    3.280655    2.041921
C     -0.580510    3.071321    0.680276
H      0.982660   -3.877897    3.119296
H      1.276127   -2.626313    4.369587
H      2.561478   -2.955998    3.164463
H      0.521416   -3.154254    0.901897
H      2.150215   -2.437617    0.908649
H     -3.828508   -1.391082    0.643959
H     -3.365634   -2.430231   -0.750834
H     -4.803897   -1.367786   -0.874835
H     -4.578934    1.109341   -1.153154
H     -2.954831    1.890660   -1.053833
H     -3.690225    1.165591    0.417787
H     -2.311507   -1.400381   -2.814102
H     -2.025015    0.374535   -2.894904
H     -3.698206   -0.287192   -3.044210
H      3.065263   -0.418649    1.414159
H      3.067691    2.020656    1.729595
H      4.550634    1.476363    0.888412
H      3.240507    2.280239   -0.051512
H      3.401934    0.233835   -1.586196
H      4.546794   -0.634717   -0.500650
H      2.994676   -1.404530   -0.971563
H      0.629819    0.539721    3.517036
H     -0.746795    2.571384    4.091459
H     -1.498049    4.146085    2.316160
H     -0.900187    3.745255   -0.102966
