34

C      1.294321   -1.188151    4.504119
C      2.017535   -1.293114    3.162072
C      2.868490   -0.052123    2.845104
C      2.036498    1.216746    2.608269
O      1.047752    1.010075    1.600549
C      1.343025    0.921758    0.234176
O      2.518727    1.115462   -0.178682
C      0.282330    0.605306   -0.735990
C     -0.977420    0.379341   -0.338503
C     -2.026906    0.140186   -1.338439
O     -3.197611   -0.138211   -0.966987
C     -1.719310    0.306332   -2.798638
C     -0.240641   -0.050398   -3.088002
C      0.164660    0.487342   -4.467311
C     -0.038533   -1.577223   -3.059775
O      0.609441    0.549538   -2.100987
H      2.014259   -0.953642    5.316786
H      0.803605   -2.157011    4.735311
H      0.509318   -0.404667    4.466007
H      1.276796   -1.471155    2.352861
H      2.690055   -2.177412    3.196944
H      3.583971    0.131812    3.675857
H      3.471210   -0.262001    1.935763
H      2.705099    2.056195    2.318031
H      1.530944    1.513932    3.550145
H     -1.243654    0.387399    0.711635
H     -1.912791    1.368964   -3.061994
H     -2.400882   -0.326498   -3.408924
H     -0.480245    0.054852   -5.262625
H      0.067593    1.593917   -4.493187
H      1.223287    0.230478   -4.686867
H     -0.319466   -1.993303   -2.069134
H      1.028068   -1.827022   -3.245651
H     -0.659290   -2.071083   -3.838168
