50

O     -3.270683   -1.831158    1.123853
C     -2.131379   -1.581274    0.642169
C     -0.932626   -1.814424    1.551877
C     -0.685065   -0.649597    2.566519
C     -1.801120   -0.553238    3.591936
C     -1.959282   -1.477461    4.545422
C     -0.430942    0.700349    1.905201
C     -1.479650    1.453089    1.334857
C     -1.217175    2.669531    0.698588
C      0.088942    3.156518    0.629254
C      1.134642    2.431818    1.202984
C      0.878746    1.213894    1.839614
C      0.303622   -2.258326    0.804453
O      0.203380   -3.155849   -0.077283
O      1.559061   -1.732485    1.130947
C      2.746358   -2.023180    0.398348
C      2.754221   -1.261026   -0.897557
C      3.045177    0.112600   -0.900733
C      3.021757    0.835062   -2.097247
C      2.707224    0.191682   -3.297303
C      2.404209   -1.172777   -3.300489
C      2.422876   -1.897876   -2.104941
C     -2.055952   -1.083516   -0.767012
C     -3.144957   -1.311419   -1.632798
C     -3.124300   -0.839666   -2.948443
C     -2.022960   -0.124547   -3.418567
C     -0.939431    0.117397   -2.574668
C     -0.948513   -0.362361   -1.262047
H     -1.189243   -2.707500    2.164056
H      0.224184   -0.913439    3.153625
H     -2.486833    0.288407    3.583093
H     -1.292665   -2.331612    4.614372
H     -2.760849   -1.378352    5.270125
H     -2.499424    1.092767    1.362550
H     -2.027599    3.232218    0.253690
H      0.290506    4.096970    0.133060
H      2.146526    2.812462    1.151837
H      1.707055    0.671013    2.276511
H      2.837068   -3.118473    0.228015
H      3.622164   -1.714805    1.007708
H      3.291608    0.621589    0.022365
H      3.246666    1.893712   -2.093759
H      2.688309    0.752198   -4.222891
H      2.149996   -1.667556   -4.228846
H      2.179594   -2.952801   -2.121562
H     -4.014149   -1.862007   -1.295107
H     -3.966323   -1.025601   -3.602649
H     -2.011284    0.246625   -4.435176
H     -0.093770    0.686474   -2.935835
H     -0.096342   -0.138355   -0.641266
