50

O      1.543809   -0.961856    0.797659
C      1.877553    0.187467    0.400094
C      1.162929    0.801144   -0.791733
C      0.915881   -0.224278   -1.943090
C      0.549749    0.468659   -3.243083
C      1.449664    1.166402   -3.944054
C     -0.097930   -1.313406   -1.604613
C     -1.481084   -1.044899   -1.543482
C     -2.390770   -2.068262   -1.262707
C     -1.936150   -3.365536   -1.022467
C     -0.570086   -3.646277   -1.075369
C      0.343725   -2.630792   -1.371023
C     -0.086386    1.521770   -0.351999
O     -0.585660    2.406522   -1.099640
O     -0.674718    1.222259    0.884193
C     -1.816198    1.903911    1.398102
C     -3.076206    1.333111    0.810866
C     -3.700899    1.954448   -0.283061
C     -4.865457    1.408196   -0.831519
C     -5.413740    0.241392   -0.291994
C     -4.793697   -0.385903    0.792088
C     -3.622812    0.150795    1.336075
C      2.923694    0.926207    1.154424
C      2.973962    2.334689    1.156880
C      3.962382    3.006979    1.882358
C      4.906571    2.286492    2.616352
C      4.861821    0.891192    2.630743
C      3.875329    0.213317    1.908180
H      1.848114    1.570425   -1.209320
H      1.894002   -0.722589   -2.135670
H     -0.459388    0.397353   -3.637873
H      2.476063    1.259785   -3.602576
H      1.160178    1.647317   -4.872722
H     -1.861975   -0.050620   -1.732784
H     -3.451022   -1.857786   -1.240150
H     -2.643203   -4.154707   -0.801790
H     -0.218411   -4.653526   -0.893026
H      1.398130   -2.873899   -1.413260
H     -1.836052    1.774787    2.501114
H     -1.737296    2.996395    1.204329
H     -3.289922    2.860950   -0.709037
H     -5.344017    1.890701   -1.673848
H     -6.315741   -0.179420   -0.716934
H     -5.214077   -1.294290    1.203703
H     -3.144914   -0.351523    2.168041
H      2.242161    2.922408    0.619467
H      3.992338    4.088972    1.879914
H      5.670115    2.809542    3.177507
H      5.592359    0.333446    3.202401
H      3.862998   -0.869430    1.930406
