77

C     -1.929143   -4.111048    4.008764
C     -1.716994   -2.821730    3.220201
C     -2.548856   -1.702642    3.783041
N     -2.495476   -1.328312    5.085963
N     -3.301933   -0.287450    5.218364
C     -3.856160    0.018137    4.039615
N     -4.686557    1.079150    3.895323
C     -4.973718    1.846891    4.987884
C     -5.879618    3.028727    4.845957
C     -4.399390    1.540198    6.241921
C     -3.545040    0.428191    6.347739
C     -2.873319    0.084637    7.644739
C     -3.416001   -0.859548    3.076076
C     -3.689811   -0.798239    1.601150
C     -2.694671    0.105665    0.925249
C     -1.530532   -0.422259    0.342122
C     -0.592596    0.427857   -0.250386
C     -0.792079    1.817471   -0.247619
C      0.209050    2.729423   -0.904044
C     -0.175065    2.987426   -2.364611
C      0.799335    3.937132   -3.030753
O      0.964612    5.037282   -2.523385
C      1.563333    3.626544   -4.314477
C      3.067775    3.506350   -4.059196
C      3.378556    2.321975   -3.141418
N      2.525421    1.151927   -3.407505
C      2.705393   -0.007038   -2.570072
O      2.030189   -1.051654   -2.783113
O      3.642859    0.035121   -1.524291
C      3.999296   -1.048843   -0.653612
C      5.111599   -0.536291    0.276179
C      4.541561   -2.242672   -1.467718
C      2.791042   -1.475936    0.202432
C      1.679729    1.045342   -4.612757
C      1.082809    2.390078   -5.095768
C     -1.959375    2.343800    0.326924
C     -2.900775    1.494631    0.913884
H     -2.984453   -4.445435    3.918270
H     -1.270237   -4.907858    3.602310
H     -1.683130   -3.959993    5.080405
H     -0.644208   -2.530529    3.258888
H     -1.982098   -3.016158    2.161191
H     -6.309651    3.070153    3.821849
H     -5.307071    3.962325    5.029534
H     -6.712090    2.959285    5.579259
H     -4.612128    2.156763    7.106559
H     -3.400091    0.553404    8.503456
H     -1.823087    0.444446    7.622737
H     -2.879129   -1.016029    7.794500
H     -4.719746   -0.414193    1.436587
H     -3.660283   -1.817365    1.161234
H     -1.350368   -1.489904    0.340501
H      0.290369    0.003595   -0.710465
H      0.256284    3.689884   -0.344630
H      1.218738    2.272024   -0.856189
H     -1.185919    3.446292   -2.405063
H     -0.229111    2.012386   -2.883359
H      1.408412    4.502311   -4.984663
H      3.458480    4.442625   -3.603452
H      3.596327    3.366464   -5.029311
H      3.229724    2.648720   -2.090170
H      4.447276    2.039215   -3.257335
H      5.450442   -1.335846    0.969341
H      4.749455    0.324898    0.877393
H      5.985082   -0.199491   -0.322395
H      4.956496   -3.019943   -0.790393
H      3.741973   -2.721924   -2.070625
H      5.346228   -1.904114   -2.158247
H      2.367877   -0.595507    0.732362
H      3.097943   -2.227540    0.960988
H      1.992500   -1.928191   -0.420826
H      2.287523    0.595607   -5.427442
H      0.831715    0.350946   -4.424748
H     -0.028395    2.347316   -5.107185
H      1.375132    2.523506   -6.163375
H     -2.142333    3.412128    0.319185
H     -3.793035    1.921790    1.356802
