58

C     -1.775167    0.723630   -1.556148
C     -2.521636   -0.583083   -1.821575
C     -3.994827   -0.225569   -1.670090
C     -4.042282    0.840288   -0.577655
C     -4.860955    0.563546    0.666480
C     -6.101051    1.349687    0.971470
O     -4.559966   -0.370528    1.393687
C     -3.752590    2.305173   -0.906587
C     -2.611061    1.399358   -0.451386
C     -2.077953    1.487509    0.991291
C     -0.572707    1.693634    0.991503
C      0.136612    0.549081    0.223478
C     -0.234586    0.629432   -1.276904
C      0.425957   -0.520552   -2.056200
C      1.877280   -0.701315   -1.729525
C      2.415725   -0.381565   -0.535021
C      3.841292   -0.840299   -0.268655
C      4.229462   -0.834477    1.224192
O      4.870402    0.388458    1.592052
C      6.175954    0.721407    1.215652
C      6.738706    2.041930    1.616578
O      6.894788   -0.097981    0.581495
C      2.996016   -1.049676    2.100073
C      1.988973    0.100449    1.946215
C      1.700844    0.546977    0.461451
C      2.299891    1.965099    0.234733
H     -1.873318    1.328662   -2.487508
H     -2.253006   -1.341549   -1.052811
H     -2.313436   -0.980156   -2.838791
H     -4.584591   -1.125762   -1.392029
H     -4.394450    0.187858   -2.621764
H     -5.958092    1.914678    1.916079
H     -6.335583    2.063088    0.154148
H     -6.961600    0.657813    1.087142
H     -4.077071    3.046416   -0.146032
H     -3.778290    2.549213   -1.989595
H     -2.562923    2.321717    1.542819
H     -2.280963    0.544382    1.538917
H     -0.352350    2.678151    0.523408
H     -0.228147    1.732340    2.046561
H     -0.261586   -0.423034    0.596877
H      0.197956    1.572839   -1.674482
H      0.321672   -0.335892   -3.147130
H     -0.064154   -1.487204   -1.820909
H      2.457561   -1.295621   -2.430980
H      4.543269   -0.216586   -0.861946
H      3.948373   -1.887087   -0.631687
H      4.931303   -1.676723    1.419324
H      5.917097    2.775157    1.758033
H      7.297563    1.931893    2.568956
H      7.424535    2.419945    0.829209
H      3.305938   -1.127426    3.165098
H      2.507654   -2.010289    1.822453
H      1.059539   -0.229966    2.458762
H      2.355186    0.959684    2.551001
H      3.403279    1.955971    0.333575
H      2.076309    2.347662   -0.781124
H      1.921905    2.696021    0.979224
