53

C     -0.100056    3.797113    1.112182
C     -1.363398    3.113026    0.563865
C     -2.236100    2.575252    1.709529
C     -1.568969    1.497949    2.455194
C     -1.016114    0.613822    3.058978
C     -0.349769   -0.444331    3.772093
O     -0.945879   -1.015483    4.722814
C      1.035136   -0.884768    3.380603
C      2.045752    0.241652    3.617720
N      1.048649   -1.299831    1.974885
C      0.432889   -2.513640    1.530249
O     -0.005252   -3.346740    2.372260
O      0.327571   -2.752766    0.152260
C     -0.300560   -3.883584   -0.469939
C     -0.201117   -3.676588   -1.989568
C     -1.788493   -3.966907   -0.075492
C      0.434789   -5.185864   -0.093656
O     -1.036839    2.035062   -0.299960
C     -0.591984    2.474386   -1.579874
C     -1.084506    1.489084   -2.663927
C     -0.014568    0.450213   -3.027927
C      0.823306    0.102947   -1.800771
C      1.456603    1.376982   -1.203046
O      0.823202    2.581851   -1.614217
H     -0.371981    4.545550    1.886397
H      0.431772    4.335047    0.301232
H      0.588850    3.049920    1.558786
H     -1.984352    3.879068    0.043762
H     -3.182664    2.174018    1.287660
H     -2.498210    3.395468    2.411606
H      1.344516   -1.745974    4.014741
H      3.067335   -0.113070    3.362992
H      1.812090    1.126566    2.987207
H      2.036332    0.545708    4.685957
H      1.487610   -0.685743    1.255857
H     -0.710803   -2.733489   -2.283952
H      0.863982   -3.605309   -2.299786
H     -0.673095   -4.519886   -2.538670
H     -2.300108   -4.769207   -0.648403
H     -1.910023   -4.195882    1.002263
H     -2.296118   -3.001830   -0.287288
H      0.039585   -6.046353   -0.679219
H      0.302446   -5.424024    0.980824
H      1.522765   -5.086305   -0.302144
H     -1.013047    3.468848   -1.853585
H     -1.360132    2.047196   -3.585541
H     -2.000847    0.969623   -2.306824
H     -0.498093   -0.465609   -3.429494
H      0.652932    0.862253   -3.818217
H      0.164815   -0.373037   -1.041549
H      1.614880   -0.628621   -2.074064
H      2.516309    1.426064   -1.529493
H      1.468017    1.316121   -0.094047
