62

C     -1.352561   -0.155498   -1.754860
C     -1.939008   -1.090101   -2.840322
C     -0.889025   -2.116106   -3.392226
C     -0.280380   -1.587878   -4.706494
C     -1.584507   -3.384570   -3.698660
N     -2.129028   -4.377655   -3.937802
C      0.263765   -2.410460   -2.384116
C     -0.184344   -2.247770   -0.959553
O     -0.011107   -3.149039   -0.153654
C     -0.845877   -0.958794   -0.530368
C      0.097834   -0.076943    0.338993
O      1.407754   -0.108519   -0.202333
Si     2.628478   -0.778196    0.850743
C      2.002489   -1.631719    2.406137
C      3.521789   -2.090999   -0.137811
C      3.842144    0.612031    1.314406
C      4.969015    0.053625    2.200435
C      4.445420    1.207021    0.030629
C      3.087847    1.713906    2.077466
C     -0.364488    1.404198    0.375978
C     -1.866840    1.565536    0.109114
C     -2.270924    1.039722   -1.301801
C     -3.821229    0.828812   -1.438692
C     -4.426462   -0.200777   -0.465222
C     -4.578476    2.160984   -1.306846
H     -0.455144    0.309912   -2.226857
H     -2.800354   -1.636314   -2.402164
H     -2.342974   -0.476236   -3.674947
H     -1.066024   -1.449676   -5.481320
H      0.215434   -0.607712   -4.538826
H      0.476228   -2.299799   -5.102654
H      1.101967   -1.695399   -2.537064
H      0.692051   -3.426151   -2.543113
H     -1.722221   -1.244225    0.088708
H      0.018990   -0.456724    1.377045
H      1.250991   -2.400450    2.138146
H      1.552402   -0.892473    3.098876
H      2.850947   -2.130582    2.915325
H      2.819864   -2.917179   -0.368517
H      4.372968   -2.492125    0.447216
H      3.892629   -1.657886   -1.088017
H      5.536403   -0.738850    1.667472
H      4.559704   -0.374139    3.140277
H      5.684091    0.859760    2.474121
H      5.031951    0.443388   -0.522084
H      5.127179    2.050432    0.274075
H      3.646423    1.590839   -0.639144
H      2.622208    1.311446    3.000567
H      3.781194    2.530766    2.371606
H      2.294400    2.155854    1.442490
H      0.190057    1.998526   -0.384537
H     -0.125503    1.840120    1.370339
H     -2.405973    1.026541    0.913205
H     -2.129325    2.641908    0.195752
H     -2.024409    1.862470   -2.012423
H     -4.037706    0.473112   -2.467408
H     -3.891637   -1.167781   -0.497027
H     -5.481325   -0.401671   -0.748997
H     -4.430559    0.173626    0.578487
H     -4.498545    2.566259   -0.275804
H     -4.175467    2.909890   -2.021794
H     -5.654841    2.012294   -1.539888
