63

C      2.009339    1.828856   -1.872016
C      2.858589    0.554153   -1.874629
C      2.046709   -0.652672   -2.392376
C      0.918023   -0.977413   -1.509436
C     -0.019961   -1.235665   -0.799049
C     -1.146834   -1.539387    0.041917
O     -0.999668   -2.399573    0.950198
C     -2.481956   -0.836471   -0.094110
C     -2.599237    0.141686   -1.290957
C     -2.583739   -0.551576   -2.634035
C     -3.607588   -1.449440   -2.986268
C     -3.596918   -2.076885   -4.235775
C     -2.574355   -1.804840   -5.148287
C     -1.571693   -0.888841   -4.820650
C     -1.579020   -0.259443   -3.572115
N     -2.801020   -0.131751    1.152365
C     -1.996989    0.920133    1.706232
O     -0.896387    1.223791    1.173737
O     -2.444310    1.577942    2.863215
C     -1.725760    2.597458    3.581004
C     -0.362290    2.044494    4.060055
C     -1.536343    3.865644    2.701514
C     -2.563135    2.952043    4.821893
O      3.324034    0.316126   -0.553779
C      4.572741   -0.368640   -0.538511
C      5.750248    0.625995   -0.481251
C      5.805297    1.340445    0.870139
C      5.729044    0.322886    2.006071
C      4.526551   -0.600316    1.796241
O      4.616326   -1.276729    0.553201
H      1.617969    2.031169   -2.891904
H      1.154203    1.733298   -1.170514
H      2.630355    2.694078   -1.553140
H      3.698935    0.743052   -2.584170
H      2.698754   -1.548201   -2.469845
H      1.656309   -0.435207   -3.409388
H     -3.247455   -1.631081   -0.228100
H     -1.793266    0.905916   -1.235552
H     -3.561692    0.694704   -1.209654
H     -4.416669   -1.658067   -2.296716
H     -4.386583   -2.767446   -4.499335
H     -2.568925   -2.280121   -6.122176
H     -0.792282   -0.659836   -5.537444
H     -0.805182    0.461814   -3.342372
H     -3.667618   -0.407139    1.669833
H      0.104892    2.738714    4.793361
H     -0.497290    1.055568    4.548316
H      0.347503    1.920107    3.215699
H     -0.510357    4.275248    2.803340
H     -1.703373    3.639438    1.629951
H     -2.255185    4.669831    2.969060
H     -3.549040    3.365167    4.520552
H     -2.740010    2.044086    5.438922
H     -2.039253    3.705105    5.449332
H      4.716681   -0.988935   -1.453934
H      5.659412    1.374568   -1.296780
H      6.699223    0.068545   -0.635078
H      4.959350    2.060456    0.954322
H      6.755550    1.913737    0.948161
H      5.631014    0.855494    2.976759
H      6.659700   -0.284840    2.027287
H      4.519779   -1.356979    2.607775
H      3.575786   -0.030220    1.881909
