71

C      3.146164   -0.209923    1.948038
C      4.402534   -0.775462    2.541104
O      5.055730   -0.187107    3.389576
C      4.837939   -2.049239    1.911900
C      3.700196   -2.381821    0.941321
C      2.959418   -1.032902    0.624673
C      3.838761   -0.297647   -0.437695
C      1.400121   -1.167176    0.142588
C      0.799714   -2.545342    0.574016
C      1.272816   -1.102292   -1.426156
C     -0.153846   -0.918521   -1.947626
C     -0.757062    0.394687   -1.388796
C     -2.037095    0.920569   -2.173033
C     -3.019225   -0.224210   -2.552574
C     -1.564384    1.543088   -3.519355
C     -2.781655    2.056993   -1.364194
O     -3.917250    1.584994   -0.634050
C     -5.225815    1.544680   -1.129626
C     -6.307749    0.941738   -0.289466
O     -5.510632    2.065027   -2.242167
C     -1.839160    2.753640   -0.385961
C     -1.282361    1.802243    0.690221
C     -0.872129    0.362747    0.178974
C     -1.980813   -0.647268    0.630730
C      0.571361    0.020046    0.785257
C      0.581167   -0.081173    2.341767
C      1.987601   -0.273053    2.968261
O      2.039332   -1.494207    3.733772
C      1.363959   -1.661712    4.953715
C      1.550170   -2.926109    5.734984
O      0.589200   -0.762629    5.388744
H      3.310455    0.874994    1.723993
H      4.958828   -2.837993    2.686964
H      5.794347   -1.894827    1.368418
H      4.075350   -2.892119    0.024447
H      3.063976   -3.112052    1.480583
H      3.418186    0.703487   -0.657150
H      4.878394   -0.120506   -0.072276
H      3.934677   -0.887701   -1.373309
H     -0.253897   -2.669314    0.292237
H      0.859538   -2.716395    1.673243
H      1.327838   -3.371861    0.055935
H      1.813821   -0.237232   -1.850620
H      1.716358   -2.010689   -1.888988
H     -0.767891   -1.813612   -1.726912
H     -0.086114   -0.869900   -3.055542
H      0.022433    1.166498   -1.584759
H     -3.858467    0.165650   -3.162493
H     -2.530769   -1.001614   -3.176081
H     -3.458402   -0.716624   -1.663005
H     -1.103196    0.789624   -4.191166
H     -0.838846    2.362872   -3.367351
H     -2.425721    1.965211   -4.079218
H     -3.137594    2.855032   -2.059027
H     -7.112134    1.692291   -0.109322
H     -6.749547    0.065382   -0.815986
H     -5.878668    0.610118    0.680495
H     -2.377313    3.585580    0.110131
H     -0.997198    3.208306   -0.953086
H     -2.020688    1.740770    1.519858
H     -0.418690    2.341396    1.139147
H     -2.054948   -1.537519   -0.027696
H     -2.995168   -0.197246    0.622911
H     -1.856059   -1.004773    1.670930
H      1.171170    0.925614    0.539577
H     -0.047780   -0.930709    2.676407
H      0.110030    0.819762    2.791192
H      2.169968    0.575275    3.675389
H      2.270726   -2.729799    6.552704
H      1.952175   -3.730086    5.067508
H      0.585227   -3.251891    6.174598
