46

O     -0.063221   -1.403928    3.896013
C     -0.433579   -0.202618    3.807226
C     -1.791270    0.249465    3.976196
C     -1.832645    1.611658    3.816177
C     -3.039474    2.306930    3.925736
C     -4.212053    1.583994    4.201569
C     -4.162237    0.185960    4.363218
C     -2.939791   -0.494957    4.249982
C     -0.482210    2.189370    3.528936
C      0.474125    0.958139    3.501817
O      1.451395    1.092920    4.506342
C      1.104322    0.804952    2.138313
O      2.290523    1.189151    1.950988
O      0.331185    0.296013    1.082649
C      0.754450    0.122794   -0.275948
C      1.953962   -0.859514   -0.371666
C      2.344571   -1.065061   -1.852570
C      1.147219   -1.661536   -2.623203
C     -0.052217   -0.693122   -2.541904
C      0.335359    0.662252   -3.171017
C      1.530618    1.264648   -2.401776
C      2.731998    0.294926   -2.476785
C      1.135836    1.482141   -0.923715
C     -0.437970   -0.479040   -1.062236
H     -3.071794    3.381434    3.800066
H     -5.157236    2.103651    4.289849
H     -5.069041   -0.365477    4.574945
H     -2.892219   -1.569435    4.371262
H     -0.507471    2.732996    2.558492
H     -0.204280    2.901099    4.336523
H      2.003110    0.266400    4.503291
H      2.834302   -0.468214    0.179346
H      1.684418   -1.835674    0.088536
H      3.208890   -1.761473   -1.914921
H      1.426364   -1.832673   -3.686151
H      0.869710   -2.647812   -2.190364
H     -0.915986   -1.124751   -3.092759
H      0.603779    0.521828   -4.241204
H     -0.530353    1.359643   -3.135068
H      1.811266    2.238871   -2.857904
H      3.037965    0.152010   -3.536498
H      3.603010    0.726634   -1.936385
H      0.278602    2.188149   -0.859875
H      1.988746    1.952023   -0.391410
H     -1.317091    0.200023   -0.998427
H     -0.741008   -1.449270   -0.609635
