36

C     -1.668155   -0.193971    0.748260
C     -1.452420    1.177678    1.229926
O     -2.313056    1.937817    1.642561
C      0.002900    1.529919    0.965011
C      0.652885    0.163611    0.530988
O      1.929211   -0.000963    1.130999
C      3.029528    0.094374    0.229578
C      4.297782    0.053437    1.099175
C      3.038624    1.427772   -0.557290
C      3.074447   -1.115952   -0.731711
C     -0.343071   -0.806611    1.151773
C     -0.634887   -2.332663    0.991943
C     -1.885897   -2.393068    0.115731
C     -2.657149   -1.363075    0.961083
C     -2.498310   -2.034771    2.311410
C     -1.327510   -2.695519    2.291325
H     -1.723935    0.001494   -0.355158
H      0.085083    2.286979    0.156721
H      0.467880    1.913299    1.899073
H      0.632235    0.047803   -0.574366
H      5.216767    0.115669    0.476384
H      4.300921    0.902756    1.816285
H      4.333892   -0.890339    1.685423
H      2.224507    1.470314   -1.309526
H      2.920043    2.284831    0.139720
H      3.996802    1.550334   -1.107097
H      2.958526   -2.062039   -0.160615
H      4.043463   -1.147987   -1.275310
H      2.275397   -1.071049   -1.498789
H     -0.149898   -0.654412    2.252324
H      0.220563   -2.979400    0.705803
H     -2.371059   -3.399802    0.100175
H     -1.687258   -2.097371   -0.940865
H     -3.701999   -1.175726    0.635659
H     -3.248652   -2.111094    3.090766
H     -0.959228   -3.357904    3.067351
