49

C     -0.803414   -1.011104   -2.662505
C     -0.820415    0.477241   -2.267024
C     -0.085373    1.287007   -3.345300
C     -2.269612    0.991448   -2.158530
O     -0.110326    0.670917   -1.035236
C     -0.427506    0.091850    0.203819
O     -1.519833   -0.518595    0.367240
C      0.578969    0.202119    1.342721
C      0.731731    1.719786    1.696513
C     -0.579106    2.430079    1.954941
O     -1.148082    2.272723    3.069187
C     -1.200487    3.306673    0.934526
N     -0.483925    3.696020   -0.158033
C     -1.004140    4.513511   -1.111757
C     -2.314633    4.978057   -0.994037
C     -3.075871    4.596385    0.111064
C     -2.521907    3.761103    1.083588
C      0.086553   -0.606445    2.583947
N      1.020894   -0.524885    3.705201
O      0.806100    0.379302    4.719131
O      2.003569   -1.292124    3.764363
C      1.904310   -0.422516    0.856276
C      1.885380   -1.678150    0.204146
C      3.068189   -2.287330   -0.221335
C      4.296230   -1.670741    0.011664
C      4.344697   -0.447721    0.679251
C      3.165627    0.169613    1.107397
H     -1.373487   -1.625551   -1.935613
H      0.241508   -1.388269   -2.690709
H     -1.260992   -1.155076   -3.665085
H      0.969026    0.946229   -3.430762
H     -0.077404    2.365360   -3.078642
H     -0.576223    1.171020   -4.335909
H     -2.880342    0.356387   -1.485994
H     -2.282856    2.028403   -1.766250
H     -2.760760    0.986130   -3.155493
H      1.273598    2.233811    0.873861
H      1.361665    1.846759    2.601492
H     -0.401219    4.798538   -1.963342
H     -2.735935    5.625614   -1.751930
H     -4.094050    4.948397    0.214979
H     -3.120794    3.470477    1.937556
H     -0.909641   -0.245642    2.916377
H     -0.052185   -1.676350    2.311212
H      0.949652   -2.191880    0.023228
H      3.031639   -3.243266   -0.727697
H      5.211813   -2.145628   -0.316451
H      5.300557    0.022211    0.872257
H      3.261436    1.104744    1.637809
