30

C     -0.389596   -1.507725    0.015619
C      0.425451   -0.405141   -0.672463
C      1.899771   -0.843408   -0.864223
C      2.197084   -0.172637   -2.138036
O      3.298582   -0.123565   -2.664151
C      0.973680    0.516360   -2.620629
C      0.813047    0.456594   -4.140402
O     -0.076683   -0.179766   -1.980481
C      0.987429    1.933550   -2.086635
C      0.732398    2.119223   -0.776338
C      0.294103    0.952883    0.104253
O      1.078798    0.920985    1.281056
S      0.228175    1.615046    2.574526
C      1.308482    1.698961    3.983433
O     -0.223394    3.005577    2.223136
O     -0.963320    0.766259    2.921381
H     -1.454893   -1.205162    0.102382
H      0.011294   -1.704979    1.032835
H     -0.346502   -2.447051   -0.576067
H      2.577752   -0.495073   -0.057255
H      1.999331   -1.942027   -1.001642
H      1.651187    0.986510   -4.641967
H      0.799702   -0.600307   -4.483046
H     -0.142999    0.936728   -4.439513
H      1.255349    2.773696   -2.720666
H      0.757819    3.122843   -0.364268
H     -0.792384    1.107203    0.304900
H      2.191225    2.324025    3.736408
H      0.767024    2.147469    4.841799
H      1.645568    0.676838    4.252905
