17

C      0.277499   -3.079438    2.774346
O     -0.018756   -2.138901    1.748979
C     -0.446542   -0.836739    2.021871
O     -0.586127   -0.447065    3.214577
C     -0.730259    0.068575    0.896147
C     -1.143828    1.330089    1.077610
C     -1.434265    2.255644   -0.036947
C     -1.288752    1.855612   -1.474765
O     -1.818531    3.424527    0.233879
H      1.102126   -2.698300    3.413295
H     -0.625068   -3.261951    3.395306
H      0.594540   -4.036160    2.311003
H     -0.591454   -0.324911   -0.102223
H     -1.277911    1.708846    2.084150
H     -1.962455    1.002092   -1.698411
H     -0.237237    1.565094   -1.680451
H     -1.557732    2.701176   -2.143158
