31

O     -1.346398   -2.827360   -0.795219
C     -0.648023   -1.779052   -0.760852
C      0.706289   -1.861316   -0.170096
C      1.246633   -0.942084    0.659393
C      0.485934    0.247585    1.119992
C     -0.735885    0.096321    1.798973
C     -1.461791    1.220867    2.202386
C     -0.969639    2.502911    1.942380
F     -1.676982    3.592266    2.330893
C      0.253174    2.661801    1.284272
C      0.982283    1.539886    0.879009
C      2.682766   -1.110474    1.099038
F      2.973990   -0.282709    2.169928
F      2.916073   -2.418079    1.489145
F      3.523639   -0.795040    0.047698
C     -1.189421   -0.531188   -1.349662
C     -2.569748   -0.269501   -1.297789
C     -3.084141    0.917322   -1.828731
C     -2.228880    1.846767   -2.425543
C     -0.858245    1.587908   -2.499235
C     -0.339262    0.402424   -1.970572
H      1.278545   -2.749218   -0.412106
H     -1.128588   -0.891168    2.007658
H     -2.406701    1.097120    2.715491
H      0.635171    3.654397    1.083537
H      1.921087    1.677889    0.357014
H     -3.245873   -0.972945   -0.827729
H     -4.146321    1.117893   -1.774371
H     -2.628702    2.765829   -2.833981
H     -0.197020    2.306087   -2.966514
H      0.725119    0.216970   -2.042665
