41

C      2.549213    1.958840   -5.345222
O      2.336883    0.686552   -4.742228
C      1.814895    0.498197   -3.453878
C      1.448647    1.573136   -2.622803
C      0.930339    1.333783   -1.346880
C      0.763060    0.017829   -0.879590
C      0.206713   -0.249389    0.469165
O      0.486700   -1.333208    1.047942
C     -0.599582    0.741417    1.209268
C     -1.761330    1.282145    0.781569
C     -2.436968    0.868881   -0.516352
C     -3.509994   -0.204936   -0.289636
C     -2.902731   -1.528779    0.095884
C     -2.877471   -1.936296    1.440328
C     -2.280729   -3.149632    1.796698
C     -1.700017   -3.959563    0.816729
C     -1.714028   -3.557135   -0.521509
C     -2.311751   -2.346017   -0.882627
C     -2.464115    2.258762    1.698858
F     -1.645600    3.350688    1.925768
F     -2.743364    1.644297    2.906814
F     -3.653469    2.708426    1.152032
C      1.139135   -1.051435   -1.709901
C      1.656493   -0.810253   -2.985371
H      3.272400    2.550078   -4.744670
H      2.967565    1.812819   -6.362084
H      1.586583    2.505741   -5.431811
H      1.561455    2.596930   -2.952260
H      0.663232    2.179318   -0.725742
H     -0.244382    0.990522    2.202631
H     -1.720610    0.514403   -1.279772
H     -2.918879    1.759484   -0.972716
H     -4.089238   -0.334852   -1.229710
H     -4.232696    0.135414    0.483952
H     -3.311755   -1.312225    2.211450
H     -2.263040   -3.459127    2.833620
H     -1.234798   -4.896272    1.095008
H     -1.256986   -4.181044   -1.278588
H     -2.306271   -2.039867   -1.921441
H      1.019889   -2.075572   -1.378226
H      1.934543   -1.645995   -3.615012
