37

O      1.198623    1.573615    3.165132
C      0.404222    1.439367    2.196043
C     -0.870425    0.733278    2.434559
C     -1.296555   -0.344194    1.736228
C     -0.445929   -1.009817    0.669371
C      0.754703   -1.747359    1.276455
C      1.601244   -2.354133    0.190301
C      2.615218   -1.597560   -0.421141
C      3.376237   -2.147193   -1.457264
C      3.124857   -3.450248   -1.895742
C      2.108855   -4.204220   -1.301639
C      1.344822   -3.658011   -0.265476
C     -2.636385   -0.977819    2.048370
F     -3.355312   -0.259668    2.989597
F     -2.434188   -2.257419    2.531809
F     -3.391551   -1.049435    0.891796
C      0.748043    2.040258    0.885423
C     -0.258807    2.432271   -0.017280
C      0.079073    2.991713   -1.253244
C      1.420598    3.172912   -1.597423
C      2.427279    2.799705   -0.704011
C      2.094954    2.241455    0.533969
H     -1.452058    1.095571    3.272091
H     -1.058316   -1.752571    0.112376
H     -0.108906   -0.270668   -0.083227
H      1.377472   -1.054089    1.879776
H      0.392792   -2.542533    1.964762
H      2.813762   -0.583795   -0.097125
H      4.158468   -1.561538   -1.922666
H      3.713986   -3.873923   -2.698774
H      1.910500   -5.210661   -1.646882
H      0.553375   -4.248610    0.179194
H     -1.304874    2.306197    0.231859
H     -0.700234    3.285919   -1.944319
H      1.679992    3.604889   -2.555298
H      3.466464    2.941565   -0.971269
H      2.890232    1.950680    1.209175
