37

O     -1.250014   -2.094807   -1.773803
C     -1.090280   -2.042246   -0.524861
C      0.021677   -2.812597    0.066248
C      1.028827   -2.279036    0.791398
C      1.135513   -0.785283    1.048632
C      1.617132   -0.038694   -0.200666
C      1.613517    1.446531    0.041057
C      0.445924    2.195488   -0.183230
C      0.428829    3.568516    0.079915
C      1.572214    4.200734    0.576318
C      2.733235    3.459823    0.814779
C      2.754315    2.086049    0.553868
C      2.099449   -3.215777    1.309544
F      1.534376   -4.113308    2.197528
F      2.655407   -3.916436    0.253568
F      3.115069   -2.535595    1.957871
C     -2.047563   -1.267023    0.300279
C     -2.767808   -0.201907   -0.269476
C     -3.661523    0.543151    0.505338
C     -3.853926    0.227311    1.853173
Br    -5.073055    1.249049    2.909910
C     -3.153966   -0.838210    2.426152
C     -2.257937   -1.584889    1.655490
H      0.047702   -3.870149   -0.169830
H      0.164900   -0.376724    1.389926
H      1.841786   -0.576728    1.879115
H      0.962884   -0.270216   -1.068280
H      2.642436   -0.380235   -0.463967
H     -0.449380    1.715664   -0.558287
H     -0.472041    4.141616   -0.097479
H      1.557099    5.263478    0.780716
H      3.615741    3.949294    1.206009
H      3.656524    1.521169    0.753466
H     -2.626372    0.065560   -1.309352
H     -4.202110    1.367128    0.057607
H     -3.303422   -1.088740    3.468523
H     -1.729980   -2.408585    2.119127
