37

O     -0.889900   -2.035080    1.226104
C     -1.500481   -1.887632    0.133743
C     -1.070565   -0.844583   -0.833089
C     -0.438961    0.315144   -0.539676
C     -0.087021    0.727933    0.879620
C      1.282575    0.187858    1.325476
C      2.418512    0.864215    0.602425
C      2.856266    2.136748    1.006358
C      3.888338    2.778726    0.315056
C      4.486797    2.158066   -0.784855
C      4.053760    0.894489   -1.195832
C      3.022781    0.248508   -0.506855
C     -0.139745    1.258946   -1.687257
F      0.651510    0.616963   -2.623361
F      0.524265    2.396415   -1.263154
F     -1.324433    1.644052   -2.289140
C     -2.613178   -2.814758   -0.194650
C     -2.700523   -4.065370    0.446822
C     -3.747730   -4.943454    0.151171
C     -4.723054   -4.582700   -0.780443
C     -4.655633   -3.341114   -1.415582
C     -3.610359   -2.458890   -1.124818
H     -1.317878   -1.032434   -1.871702
H     -0.090627    1.834629    0.974909
H     -0.874637    0.392358    1.586018
H      1.338369   -0.910424    1.173516
H      1.394943    0.362131    2.417714
H      2.394627    2.631646    1.851842
H      4.221912    3.758990    0.630055
H      5.284108    2.657243   -1.320131
H      4.514668    0.416817   -2.050689
H      2.690077   -0.725952   -0.842499
H     -1.953539   -4.369182    1.169701
H     -3.802640   -5.904896    0.645334
H     -5.533559   -5.263365   -1.006870
H     -5.417768   -3.058786   -2.130468
H     -3.598328   -1.493811   -1.614093
