73

C      1.968596   -4.933444   -2.927630
C      2.556392   -4.245546   -1.732444
C      2.758551   -2.856784   -1.743980
C      3.246853   -2.206948   -0.607302
C      3.540480   -2.938571    0.552106
S      4.115093   -2.095566    1.984449
O      5.214527   -1.152740    1.583740
O      4.661896   -3.073374    2.989545
N      2.781766   -1.188215    2.653423
C      1.896778   -2.035613    3.461693
C      2.265642   -1.329677    4.754576
C      3.178135   -0.480353    3.880369
C      2.774709    0.971586    3.833943
O      2.879985    1.686549    4.865339
C      2.281443    1.554827    2.614181
C      1.865981    1.973312    1.563906
C      1.353455    2.406365    0.260227
C     -0.057003    1.863603    0.044085
O     -0.423219    2.060755   -1.301068
Si    -1.885390    1.194156   -1.675256
C     -3.017981    1.141683   -0.181858
C     -3.806869    2.267112    0.111517
C     -4.612328    2.290396    1.254612
C     -4.622547    1.199201    2.125261
C     -3.821831    0.087054    1.857000
C     -3.015696    0.060715    0.714766
C     -2.772712    2.169895   -2.985840
C     -2.069417    3.099794   -3.766937
C     -2.720509    3.790733   -4.794020
C     -4.073335    3.551053   -5.050809
C     -4.776372    2.619322   -4.281315
C     -4.128078    1.926512   -3.253971
C     -1.426625   -0.493020   -2.463092
C     -0.885737   -0.246817   -3.884973
C     -2.670978   -1.393653   -2.552637
C     -0.327079   -1.201718   -1.650798
C      3.328470   -4.323898    0.570869
C      2.833165   -4.973776   -0.564266
H      2.174640   -4.359906   -3.856943
H      0.871100   -5.022460   -2.796345
H      2.402847   -5.949209   -3.041393
H      2.526994   -2.275756   -2.629277
H      3.383353   -1.132038   -0.626139
H      0.834621   -1.865499    3.181964
H      2.163190   -3.115826    3.466716
H      2.828220   -1.985362    5.452934
H      1.408018   -0.782209    5.205155
H      4.252793   -0.596992    4.152417
H      1.349196    3.516291    0.210781
H      2.031494    2.012362   -0.527602
H     -0.753209    2.415602    0.715252
H     -0.062504    0.782948    0.315495
H     -3.797045    3.133390   -0.537924
H     -5.222268    3.158888    1.469492
H     -5.242896    1.218917    3.012701
H     -3.815796   -0.752198    2.540865
H     -2.389884   -0.799896    0.552906
H     -1.017508    3.284706   -3.590678
H     -2.174285    4.507393   -5.395438
H     -4.575707    4.083845   -5.847931
H     -5.822213    2.429635   -4.485008
H     -4.683059    1.201197   -2.671855
H     -0.016964    0.446080   -3.861128
H     -0.554212   -1.201512   -4.348114
H     -1.666293    0.192279   -4.541825
H     -3.455802   -0.922038   -3.182214
H     -3.099750   -1.588995   -1.549130
H     -2.409536   -2.373289   -3.008295
H      0.597268   -0.585456   -1.619015
H     -0.072190   -2.177167   -2.117726
H     -0.644606   -1.409984   -0.613399
H      3.531061   -4.898866    1.465666
H      2.660074   -6.042558   -0.531398
