47

C      3.989765    2.711375    0.746951
C      2.532687    2.521066    0.446571
C      1.782146    1.572764    1.158418
C      0.416666    1.421184    0.903072
C     -0.216805    2.224642   -0.053403
S     -1.929696    1.993603   -0.380991
O     -2.674426    1.959635    0.924330
O     -2.464588    3.129141   -1.211740
N     -2.130753    0.467884   -1.206137
C     -1.777519    0.569464   -2.627304
C     -3.206262    0.336523   -3.083867
C     -3.531826    0.254659   -1.598940
C     -4.026096   -1.102444   -1.169375
O     -5.114574   -1.546297   -1.620288
C     -3.282406   -1.884558   -0.217619
C     -2.620769   -2.494213    0.583471
C     -1.776869   -3.192893    1.565676
C     -2.215225   -2.827752    3.005703
C     -1.447356   -1.613168    3.539996
C      0.072388   -1.875386    3.596039
C      0.555786   -2.914571    2.564601
C     -0.286151   -2.869381    1.285758
C      0.527520    3.180083   -0.758358
C      1.893797    3.333980   -0.502929
H      4.450160    1.755241    1.075471
H      4.533538    3.061459   -0.156258
H      4.104799    3.464845    1.553834
H      2.253678    0.949026    1.907969
H     -0.147472    0.677441    1.449878
H     -1.104263   -0.264803   -2.921749
H     -1.381284    1.562050   -2.938952
H     -3.328164   -0.618459   -3.641446
H     -3.650025    1.230671   -3.572713
H     -4.229609    1.061289   -1.276168
H     -1.936883   -4.284368    1.426281
H     -3.309212   -2.629062    3.053124
H     -2.019009   -3.692726    3.677359
H     -1.817101   -1.356927    4.556290
H     -1.651869   -0.741100    2.880868
H      0.606019   -0.914433    3.428435
H      0.347875   -2.231993    4.612370
H      0.491926   -3.934351    3.004287
H      1.621919   -2.721666    2.316366
H     -0.174403   -1.855054    0.838433
H      0.119406   -3.599673    0.552080
H      0.054815    3.804855   -1.504979
H      2.453853    4.083764   -1.048066
