41

C     -2.392815   -2.482215   -4.502305
C     -2.052267   -2.382643   -3.045027
C     -3.028108   -2.642809   -2.071453
C     -2.701839   -2.585660   -0.713382
C     -1.396110   -2.269104   -0.311040
S     -0.981381   -2.202990    1.409310
O     -1.842887   -3.184056    2.154301
O      0.451948   -2.623035    1.579172
N     -1.189405   -0.615500    2.121806
C     -2.508091   -0.050213    1.806785
C     -1.925019    1.039901    0.926097
C     -0.578541    0.432992    1.294220
C      0.279708    1.343478    2.130436
O     -0.157015    1.825431    3.209850
C      1.615755    1.660298    1.707149
C      2.736023    1.922381    1.347814
C      4.073044    2.233434    0.916231
C      5.152198    2.066530    1.795358
C      6.451461    2.368101    1.373494
C      6.675299    2.836507    0.074865
C      5.600058    3.003854   -0.803788
C      4.299723    2.702691   -0.385210
C     -0.412321   -2.045320   -1.285547
C     -0.737741   -2.102017   -2.643767
H     -2.231527   -3.524444   -4.848595
H     -1.754523   -1.798151   -5.101210
H     -3.453638   -2.202248   -4.676767
H     -4.040952   -2.891678   -2.363347
H     -3.468202   -2.792785    0.022255
H     -2.980988    0.366367    2.722782
H     -3.192027   -0.731608    1.259187
H     -2.178117    0.899228   -0.147267
H     -2.105294    2.062996    1.323649
H     -0.032390    0.058315    0.401879
H      4.989227    1.703947    2.803331
H      7.284355    2.238522    2.052675
H      7.681043    3.069346   -0.250406
H      5.774353    3.366256   -1.808768
H      3.473488    2.834997   -1.073636
H      0.607934   -1.828610   -0.996146
H      0.035590   -1.928695   -3.381969
