49

C      3.625328   -1.118161   -0.351146
C      3.006215    0.237116   -0.011391
C      2.896597    1.154548   -1.238604
C      1.732392    0.764439   -2.161333
C      1.676712    1.688831   -3.389047
C      0.478765    1.381342   -4.296288
C     -0.780247    1.754379   -3.641917
C     -1.793208    2.060340   -3.066653
C     -2.976152    2.417552   -2.329515
O     -3.853178    3.132930   -2.880885
C     -3.179005    1.950410   -0.910946
C     -2.966153    3.058415    0.110288
C     -1.791743    2.221024    0.583166
N     -2.030862    1.172956   -0.417529
S     -2.560271   -0.314269    0.331874
O     -3.169799   -1.207610   -0.712577
O     -3.594683   -0.046045    1.391762
C     -1.171378   -1.126612    1.045845
C     -0.834602   -0.905017    2.388080
C      0.271081   -1.548357    2.951324
C      1.048295   -2.424778    2.179935
C      2.237595   -3.100955    2.794152
C      0.714323   -2.639331    0.833196
C     -0.385064   -1.987002    0.267848
H      4.615879   -0.983046   -0.835090
H      2.962309   -1.697104   -1.026444
H      3.768285   -1.702888    0.581238
H      3.653306    0.733034    0.743803
H      2.006509    0.088789    0.451070
H      2.730441    2.194472   -0.880616
H      3.854310    1.144847   -1.804789
H      0.781310    0.836170   -1.588962
H      1.854786   -0.283757   -2.508010
H      1.632102    2.752433   -3.063820
H      2.608356    1.556253   -3.981707
H      0.573204    1.965054   -5.236190
H      0.455660    0.301696   -4.555596
H     -4.163701    1.442924   -0.789293
H     -3.782803    3.111687    0.862177
H     -2.652024    4.035904   -0.318264
H     -0.818082    2.723642    0.394629
H     -1.898320    1.891370    1.640636
H     -1.425571   -0.234922    2.999159
H      0.520976   -1.365311    3.989383
H      2.702693   -3.824266    2.091048
H      1.926121   -3.651204    3.707071
H      2.994813   -2.338437    3.071873
H      1.306865   -3.305301    0.218470
H     -0.622397   -2.153747   -0.775461
