49

C     -2.310251    0.726847   -1.248358
C     -1.118015    1.008487   -0.338056
C     -0.302951    2.206050   -0.846389
C      0.735953    2.698041    0.175198
C      1.838924    1.679508    0.521921
C      2.793057    1.374435   -0.645708
C      2.309422    0.255885   -1.465564
C      1.921136   -0.669200   -2.135441
C      1.460380   -1.774571   -2.928474
O      2.291091   -2.434472   -3.607483
C      0.003666   -2.150583   -2.920684
C     -0.584418   -2.388026   -4.304042
C     -0.745185   -3.826165   -3.842778
N     -0.170232   -3.552758   -2.517875
S     -1.378114   -3.686130   -1.257606
O     -1.621027   -5.138126   -0.953801
O     -2.665623   -3.046509   -1.701558
C     -0.802371   -2.876554    0.197375
C     -1.714467   -2.295545    1.088488
C     -1.255883   -1.593439    2.207492
C      0.119689   -1.460399    2.443122
C      0.605053   -0.706024    3.644046
C      1.031183   -2.074706    1.570476
C      0.572192   -2.778471    0.453888
H     -2.836881   -0.185901   -0.900194
H     -3.022935    1.578943   -1.222048
H     -1.971500    0.567518   -2.292813
H     -0.474941    0.104564   -0.307943
H     -1.493524    1.209887    0.688844
H     -0.995271    3.051889   -1.049549
H      0.191401    1.951509   -1.806996
H      0.208211    2.980580    1.113152
H      1.208964    3.625429   -0.216255
H      2.443204    2.123431    1.342557
H      1.401110    0.746979    0.937734
H      2.939407    2.269816   -1.289887
H      3.783189    1.082403   -0.234940
H     -0.607250   -1.428886   -2.333421
H      0.133848   -2.279333   -5.145952
H     -1.559769   -1.873698   -4.447255
H     -1.806160   -4.161650   -3.831150
H     -0.092336   -4.520793   -4.414013
H     -2.778558   -2.373516    0.911025
H     -1.973002   -1.143796    2.882990
H     -0.028264    0.190495    3.813395
H      0.556014   -1.361895    4.538747
H      1.653364   -0.363834    3.502414
H      2.097520   -1.995282    1.745084
H      1.289479   -3.233199   -0.217156
