41

C      2.408471   -0.541716   -4.505025
C      1.607403   -0.919580   -3.294995
C      1.984261   -0.460211   -2.023168
C      1.214834   -0.782613   -0.901338
C      0.057139   -1.559265   -1.039204
S     -0.912940   -1.934135    0.380408
O     -0.005494   -2.408288    1.480985
O     -1.896798   -3.028375    0.063194
N     -1.739923   -0.483117    0.893128
C     -2.865275   -0.168097    0.003778
C     -3.900859   -0.448585    1.077000
C     -2.706531   -0.774689    1.962992
C     -2.558300    0.170977    3.126862
O     -3.437713    0.192904    4.027872
C     -1.409887    1.031080    3.244762
C     -0.438616    1.740283    3.322129
C      0.728485    2.577803    3.398047
C      1.899163    2.210146    2.720601
C      3.033092    3.026201    2.789690
C      2.999815    4.209834    3.534300
C      1.832570    4.578673    4.210735
C      0.697005    3.764460    4.143393
C     -0.335411   -1.998017   -2.311606
C      0.434025   -1.676856   -3.434342
H      3.473135   -0.372941   -4.236014
H      2.370297   -1.351297   -5.264872
H      1.994800    0.389373   -4.945679
H      2.872005    0.148008   -1.899856
H      1.517386   -0.421387    0.073861
H     -2.965929   -0.841239   -0.877457
H     -2.844629    0.905180   -0.285473
H     -4.522490   -1.341080    0.848128
H     -4.468735    0.461035    1.373660
H     -2.711787   -1.835461    2.304260
H      1.934349    1.295685    2.139684
H      3.936875    2.741579    2.265668
H      3.877773    4.840635    3.586752
H      1.807929    5.494956    4.786586
H     -0.202748    4.059165    4.670066
H     -1.238340   -2.581197   -2.438392
H      0.113957   -2.016633   -4.412005
