27

C      2.233048   -0.338775   -5.951039
O      1.344470   -0.676560   -4.892829
C      1.774096   -0.843125   -3.572805
O      2.994562   -0.719363   -3.279272
C      0.793860   -1.201335   -2.535878
O     -0.357615   -1.571448   -2.888229
C      1.128909   -1.169959   -1.097603
C      1.796854   -0.167157   -0.383629
C      2.332816    1.116827   -0.936468
N      1.885565   -0.494296    0.926992
C      1.261781   -1.677081    1.056817
C      1.086278   -2.412317    2.228465
C      0.398106   -3.635773    2.140876
C     -0.092482   -4.092920    0.898158
C      0.098825   -3.330104   -0.268181
C      0.780430   -2.116979   -0.150811
H      3.007400   -1.126948   -6.063559
H      2.718903    0.637895   -5.742163
H      1.659786   -0.260208   -6.897444
H      2.292412    1.907703   -0.158495
H      3.388076    0.976759   -1.248491
H      1.726626    1.451520   -1.803860
H      2.330901    0.067220    1.687073
H      1.467630   -2.054664    3.176152
H      0.245362   -4.231340    3.031461
H     -0.617352   -5.037668    0.842028
H     -0.268890   -3.681453   -1.223104
