57

C      0.117718    1.674235   -0.434194
C      0.415397    2.632562   -1.611556
C     -0.853761    2.757844   -2.449729
O     -1.145727    3.819016   -2.978293
C     -1.717144    1.519438   -2.669560
C     -2.073894    0.894497   -1.309099
C     -0.690100    0.410222   -0.842930
C     -0.121402   -0.264044   -2.136710
C     -0.818750    0.472442   -3.233609
C     -0.603532    0.271323   -4.537332
C     -0.594775   -0.449473    0.444010
C     -1.107797   -1.858473    0.279623
O     -0.398242   -2.749848   -0.263319
O     -2.407401   -2.152608    0.698991
C     -2.990640   -3.440710    0.545772
C      0.911638   -0.303220    0.782352
C      1.237434    1.209311    0.562864
C      1.086023    2.088994    1.845098
C      2.707645    1.292539    0.070577
C      3.633286    0.224377    0.735283
C      3.115943   -0.371399    2.077141
C      1.621625   -0.911681    2.046389
C      1.678733   -2.454904    1.951782
C      0.868712   -0.591819    3.330906
O      1.477345   -0.148998    4.345221
O     -0.496738   -0.881494    3.417870
C     -1.271236   -0.598426    4.575976
H     -0.601066    2.280107    0.170272
H      1.232038    2.250852   -2.256376
H      0.717792    3.627240   -1.216810
H     -2.617522    1.711725   -3.292992
H     -2.764992    0.031594   -1.443942
H     -2.558826    1.624372   -0.623998
H      0.980525   -0.161168   -2.230239
H     -0.403832   -1.330683   -2.224571
H     -1.122006    0.869267   -5.280286
H      0.090072   -0.496060   -4.867419
H     -1.200277    0.043839    1.235811
H     -3.068108   -3.695671   -0.533041
H     -2.375300   -4.203311    1.069564
H     -4.008749   -3.433744    0.988179
H      1.398224   -0.854250   -0.056526
H      1.090616    3.164877    1.564138
H      0.125559    1.879288    2.362254
H      1.904361    1.976222    2.572029
H      3.117605    2.310691    0.249413
H      2.751826    1.125460   -1.025060
H      4.638560    0.669607    0.900460
H      3.776521   -0.618232    0.023143
H      3.819398   -1.181321    2.372530
H      3.278177    0.392094    2.861762
H      2.267625   -2.874511    2.796155
H      0.668173   -2.904885    2.021479
H      2.159579   -2.781805    1.005009
H     -1.252578    0.492307    4.787090
H     -0.870465   -1.157875    5.447927
H     -2.320318   -0.910845    4.396941
