57

C      0.778958    1.720136   -0.305563
C      1.767773    2.581570    0.507713
C      3.180408    2.096909    0.184743
O      4.108371    2.888241    0.126713
C      3.427356    0.600393    0.005568
C      2.439721    0.024047   -1.028875
C      1.106683    0.198132   -0.280951
C      1.472156   -0.312653    1.157446
C      2.938732   -0.050286    1.251115
C      3.685943   -0.291512    2.332933
C     -0.193005   -0.413676   -0.878225
C     -0.254259   -1.918275   -0.786581
O     -0.570089   -2.493179    0.291325
O      0.084558   -2.673470   -1.912652
C      0.072128   -4.095557   -1.913047
C     -1.264322    0.384906   -0.087729
C     -0.773944    1.869817   -0.146327
C     -1.266565    2.683605   -1.389274
C     -1.286384    2.559267    1.134647
C     -2.835728    2.482032    1.219900
C     -3.434800    1.067063    0.978397
C     -2.818525    0.223859   -0.203671
C     -3.259438   -1.240240    0.012735
C     -3.361693    0.618994   -1.561964
O     -4.391751    1.343392   -1.656477
O     -2.756687    0.109268   -2.715442
C     -3.207592    0.430578   -4.024896
H      1.017049    2.043393   -1.348023
H      1.581181    2.488108    1.597493
H      1.653487    3.650659    0.224732
H      4.483540    0.351640   -0.237640
H      2.493174    0.555137   -2.004642
H      2.647676   -1.055058   -1.209869
H      0.927103    0.224416    1.962162
H      1.328834   -1.402829    1.276441
H      4.741712   -0.040388    2.340122
H      3.244224   -0.739869    3.217091
H     -0.260607   -0.141671   -1.954792
H      0.788537   -4.481868   -1.157485
H     -0.949800   -4.466320   -1.685501
H      0.373124   -4.462390   -2.915688
H     -1.098691    0.032684    0.957835
H     -2.337785    2.940615   -1.381168
H     -0.727875    3.655078   -1.435372
H     -1.058020    2.137488   -2.333397
H     -0.849021    2.074497    2.034643
H     -0.970540    3.625035    1.148661
H     -3.304082    3.206290    0.523941
H     -3.140083    2.820161    2.234138
H     -4.536646    1.156932    0.860068
H     -3.285169    0.507290    1.929336
H     -2.870909   -1.640783    0.972949
H     -4.369031   -1.306172    0.049838
H     -2.921910   -1.893319   -0.819238
H     -3.140131    1.526685   -4.190844
H     -4.257214    0.093430   -4.158859
H     -2.565777   -0.085952   -4.767552
