50

C      0.222468   -4.603734   -1.841879
C     -0.408372   -3.907779   -0.673278
C      0.380073   -3.493025    0.410563
C     -0.211774   -2.884843    1.521610
C     -1.600230   -2.702425    1.568369
S     -2.355557   -1.929627    2.958809
O     -3.604578   -2.679121    3.331083
O     -1.424902   -1.942997    4.139484
N     -2.747286   -0.294157    2.554021
C     -3.977399    0.186565    2.292365
C     -3.885659    1.513382    1.921767
C     -2.539073    1.836494    1.970848
C     -1.917846    3.126753    1.532848
C     -1.387534    3.001307    0.101486
C     -0.721613    4.302109   -0.360927
C     -0.130021    4.136689   -1.736321
O     -0.759134    4.627443   -2.714207
C      1.128006    3.376979   -1.984106
C      1.939611    2.904562   -0.912409
C      3.114100    2.173245   -1.165378
C      3.459236    1.935108   -2.489280
C      2.701089    2.382404   -3.520696
C      1.528887    3.103659   -3.316692
O      3.274361    1.994393   -4.716928
C      4.470323    1.260269   -4.415868
O      4.551255    1.247584   -2.984947
C     -1.860595    0.697082    2.353987
C     -2.390513   -3.119228    0.489765
C     -1.799764   -3.728542   -0.621090
H      1.242064   -4.205737   -2.028858
H      0.291221   -5.688949   -1.628965
H     -0.379634   -4.452867   -2.763959
H      1.452577   -3.640949    0.395961
H      0.413623   -2.562405    2.344000
H     -4.889495   -0.397667    2.338881
H     -4.700529    2.158247    1.619284
H     -1.084309    3.379907    2.224012
H     -2.674482    3.939809    1.585608
H     -2.230267    2.757289   -0.583853
H     -0.652823    2.168067    0.057851
H      0.060802    4.624760    0.357381
H     -1.485604    5.109851   -0.384281
H      1.676190    3.091372    0.119472
H      3.736766    1.816337   -0.354838
H      0.948162    3.434652   -4.166949
H      4.389740    0.221235   -4.803102
H      5.353668    1.775397   -4.846358
H     -0.787059    0.588798    2.443423
H     -3.464365   -2.975390    0.511522
H     -2.427015   -4.058304   -1.439968
