50

C      1.689095    0.848995   -6.474465
C      1.744252    0.775624   -4.977368
C      1.703287   -0.467947   -4.328172
C      1.790725   -0.538577   -2.934633
C      1.939256    0.630814   -2.177519
S      2.024594    0.542066   -0.423341
O      2.672654   -0.748287   -0.004864
O      2.850691    1.678679    0.111180
N      0.425195    0.627777    0.228748
C     -0.222208    1.748548    0.596241
C     -1.471850    1.422303    1.085841
C     -1.570389    0.043559    1.007117
C     -2.737056   -0.793106    1.448855
C     -2.342305   -1.833959    2.512816
C     -2.224598   -1.262230    3.938606
C     -1.187286   -0.175187    4.071343
O     -1.582578    0.986880    4.362074
C      0.264084   -0.412733    3.847466
C      1.132956    0.695021    3.642045
C      2.500374    0.500504    3.380634
C      2.973038   -0.804781    3.335857
C      2.160331   -1.869424    3.542958
C      0.802454   -1.722928    3.809506
O      2.894322   -3.035166    3.438991
C      4.252097   -2.679222    3.143432
O      4.258562   -1.246004    3.089234
C     -0.387648   -0.416877    0.459574
C      1.988935    1.872921   -2.823658
C      1.901577    1.944802   -4.217190
H      2.717991    0.782482   -6.885283
H      1.080229    0.015784   -6.885415
H      1.228614    1.804847   -6.803262
H      1.600275   -1.381908   -4.900037
H      1.742339   -1.504187   -2.447501
H      0.189768    2.746483    0.523710
H     -2.215461    2.107784    1.469922
H     -3.130239   -1.326219    0.556809
H     -3.553567   -0.144661    1.834699
H     -1.407168   -2.354037    2.218801
H     -3.134667   -2.613367    2.534601
H     -3.217657   -0.865847    4.245291
H     -1.984541   -2.084123    4.645506
H      0.749778    1.707368    3.660743
H      3.162162    1.339263    3.209873
H      0.197142   -2.601953    3.978932
H      4.926102   -3.035333    3.950509
H      4.553070   -3.100537    2.161350
H     -0.131084   -1.449339    0.260261
H      2.094884    2.785057   -2.250304
H      1.953117    2.911612   -4.702587
