38

C      1.672948   -4.349350   -2.199285
O      1.884275   -3.073516   -1.607543
C      0.835996   -2.195052   -1.318925
O     -0.355085   -2.510764   -1.593219
C      1.154263   -0.844119   -0.725537
C      1.574466    0.190386   -1.815329
C      0.769842    0.161082   -3.141631
C     -0.688718    0.505488   -2.993835
C     -1.146216    1.742943   -3.203626
C      1.658124    1.594614   -1.254349
O      2.475002    2.376834   -1.717181
C      0.689870    2.078516   -0.205654
C      0.429379    1.016957    0.877034
O      1.605258    0.845766    1.644455
C      1.290362    1.244731    2.941308
C     -0.066558    1.876193    2.881844
O     -0.640692    1.458533    1.685854
C      0.031587   -0.326959    0.217451
N     -0.277619   -1.321016    1.251879
O      0.731538   -1.934774    1.958608
O     -1.461219   -1.500511    1.605220
H      1.194370   -4.231661   -3.194617
H      2.650307   -4.857898   -2.328015
H      1.027239   -4.970498   -1.542993
H      2.054024   -1.001130   -0.088572
H      2.613091   -0.092422   -2.103814
H      0.845241   -0.846349   -3.602552
H      1.246483    0.853715   -3.870880
H     -1.392526   -0.277852   -2.731996
H     -2.204941    1.955051   -3.097187
H     -0.472753    2.550760   -3.473404
H      1.088202    2.999295    0.274998
H     -0.266608    2.353643   -0.695413
H      1.276896    0.353156    3.604745
H      2.049543    1.966951    3.310316
H     -0.695446    1.551341    3.737978
H      0.015887    2.985166    2.882706
H     -0.887428   -0.154852   -0.383627
