33

O     -2.572301   -2.444730   -2.095789
C     -2.111105   -1.565719   -1.317482
C     -1.407039   -2.026456   -0.069873
N      0.030040   -1.794947   -0.182763
C      0.803116   -1.095695    0.664887
C      2.090696   -1.175914    0.167381
C      3.320061   -0.567874    0.728322
C      3.277973    0.218719    1.895818
C      4.448568    0.785674    2.409713
C      5.670546    0.575759    1.767393
C      5.725010   -0.201749    0.608890
C      4.557923   -0.771119    0.090321
N      2.056463   -1.926508   -0.954966
N      0.796235   -2.291029   -1.140659
C     -2.248015   -0.125906   -1.674924
C     -2.812915    0.238167   -2.913561
C     -2.943598    1.583652   -3.269833
C     -2.514407    2.585542   -2.396825
Br    -2.693154    4.422865   -2.886533
C     -1.955097    2.241092   -1.164406
C     -1.822552    0.897106   -0.802717
H     -1.823196   -1.502483    0.817187
H     -1.583222   -3.113050    0.084766
H      0.453366   -0.585639    1.552356
H      2.346840    0.400193    2.414436
H      4.407675    1.389077    3.307413
H      6.575008    1.015753    2.167194
H      6.672597   -0.363750    0.111482
H      4.624939   -1.370129   -0.809247
H     -3.151615   -0.516892   -3.611851
H     -3.378113    1.845941   -4.225964
H     -1.623092    3.014830   -0.483990
H     -1.390689    0.671885    0.161063
