74

C     -0.890783    0.152779    2.162275
C     -1.775708   -0.964243    2.761352
C     -2.268516   -0.503989    4.130156
O     -3.374632   -0.828823    4.531161
C     -1.327901    0.298699    5.023093
C     -0.786393    1.508189    4.241866
C      0.080954    0.802344    3.185085
C      0.849580   -0.257359    4.042273
C     -0.088954   -0.515871    5.175386
C      0.124696   -1.407537    6.147863
C      0.973263    1.660317    2.258980
C      2.185101    2.234960    2.950134
O      2.119921    3.395601    3.440173
O      3.355763    1.479355    3.080986
C      4.524802    1.980164    3.715809
C      1.268805    0.642483    1.128583
C     -0.093708   -0.069466    0.829954
C      0.292466   -1.530939    0.484444
C      1.523831   -1.602243   -0.484538
C      2.032825   -0.253632   -1.112848
C      1.923519    1.043003   -0.211745
C      3.326533    1.654242   -0.003150
C      0.998939    2.045346   -0.862317
O      1.438299    3.032912   -1.510511
O     -0.374650    1.860791   -0.734860
C     -0.912752    0.585581   -0.385572
O     -0.884629   -0.242603   -1.534675
Si    -2.227327    0.040238   -2.605074
C     -2.577663    1.871528   -2.816073
C     -3.752194   -0.774898   -1.886696
C     -1.791997   -0.738927   -4.283012
C     -0.613253    0.028491   -4.906759
C     -1.385455   -2.206861   -4.065288
C     -3.005340   -0.674480   -5.226342
H     -1.629324    0.959820    1.955359
H     -2.637260   -1.159133    2.086222
H     -1.208942   -1.909018    2.884137
H     -1.783458    0.595508    5.993190
H     -1.601391    2.137581    3.821119
H     -0.157076    2.148863    4.900542
H      1.788524    0.143438    4.472232
H      1.066621   -1.192400    3.487409
H      1.043520   -1.984876    6.172115
H     -0.618195   -1.565082    6.923336
H      0.374240    2.503528    1.845626
H      5.310974    1.197493    3.699575
H      4.896809    2.875399    3.173696
H      4.300498    2.244256    4.770903
H      1.979805   -0.083104    1.593687
H     -0.576902   -2.076686    0.056674
H      0.560858   -2.081361    1.409710
H      2.374015   -2.047659    0.078045
H      1.294475   -2.314066   -1.306809
H      3.089000   -0.422946   -1.417762
H      1.510272   -0.098084   -2.080022
H      3.978862    0.952189    0.558105
H      3.808427    1.856731   -0.984024
H      3.268176    2.618610    0.542678
H     -1.969774    0.738947   -0.075806
H     -2.912271    2.302253   -1.850435
H     -1.659436    2.394016   -3.152823
H     -3.379881    2.013672   -3.567639
H     -3.566081   -1.858740   -1.746972
H     -3.992248   -0.318107   -0.905077
H     -4.612479   -0.628287   -2.570343
H      0.267858    0.016999   -4.230460
H     -0.891059    1.085090   -5.107162
H     -0.313750   -0.433350   -5.872714
H     -2.221053   -2.787994   -3.619813
H     -0.507465   -2.276217   -3.386654
H     -1.112913   -2.683010   -5.031977
H     -3.859686   -1.251921   -4.812938
H     -3.330382    0.376075   -5.383817
H     -2.748885   -1.106873   -6.217923
