39

C     -2.110120    1.794975   -0.279264
O     -2.093466    2.924590   -1.082395
C     -0.873195    2.707993   -1.813118
C     -1.100676    3.065645   -3.287938
C      0.239056    3.595386   -1.235013
O     -0.476511    1.329922   -1.706525
C     -1.645860    0.769399   -1.218906
C     -1.731495   -0.545781   -0.438692
C     -0.547702   -0.781978    0.520617
O      0.654155   -0.801287   -0.229965
C      1.826035   -1.095757    0.530274
C      2.043104   -0.109387    1.704382
C      1.820210   -2.555652    1.042163
C      3.007843   -0.937935   -0.442925
C     -3.109012   -0.346978    0.282860
F     -3.090841   -0.783229    1.597313
C     -3.336385    1.146832    0.218884
O     -4.330131    1.729143    0.622168
H     -1.427766    1.954687    0.590526
H     -1.374538    4.138208   -3.386213
H     -1.925969    2.455466   -3.710808
H     -0.180241    2.872417   -3.879512
H      0.434068    3.328855   -0.174068
H      1.181136    3.455031   -1.806739
H     -0.055697    4.666522   -1.279717
H     -2.355119    0.660113   -2.085268
H     -1.791914   -1.402753   -1.147363
H     -0.531267    0.019298    1.287020
H     -0.721723   -1.757092    1.021475
H      1.917880    0.938067    1.352070
H      3.065187   -0.220441    2.128371
H      1.328205   -0.300264    2.532098
H      1.526927   -3.252311    0.226598
H      1.119682   -2.689195    1.893824
H      2.829891   -2.849754    1.405265
H      2.887598   -1.623876   -1.310857
H      3.977568   -1.165426    0.053808
H      3.046007    0.101551   -0.836850
H     -3.915818   -0.869277   -0.275789
