28

C      1.020607   -0.908259   -0.010250
C      1.679864   -0.688094   -1.368225
C      0.492675   -0.651064   -2.275876
O      0.580082   -0.727781   -3.491740
C     -0.812618   -0.556638   -1.542499
C     -1.715754    0.507886   -2.100619
O     -1.251338    1.641611   -2.406246
O     -3.080373    0.239474   -2.238164
C     -4.003870    1.201087   -2.733500
C     -0.340697   -0.225895   -0.123890
C     -1.232127   -0.686235    1.034030
C     -0.496599   -0.525636    2.354132
C      0.853202   -0.444887    2.440457
C      1.756555   -0.371056    1.220607
H      0.874502   -2.007717    0.121624
H      2.357213   -1.531207   -1.623717
H      2.220548    0.281759   -1.414941
H     -1.318469   -1.546667   -1.577288
H     -4.013606    2.093964   -2.073046
H     -5.019653    0.755730   -2.750980
H     -3.724025    1.500439   -3.765767
H     -0.196799    0.878874   -0.035192
H     -1.512586   -1.754066    0.907055
H     -2.160967   -0.077400    1.051907
H     -1.077333   -0.556769    3.270815
H      1.308607   -0.348759    3.421224
H      2.058248    0.686610    1.061017
H      2.670795   -0.975627    1.400393
