38

C      2.158874    0.160508   -0.048854
C      0.732162   -0.453211   -0.128474
C      0.815847   -1.929718    0.354140
C     -0.015371   -2.775058   -0.599198
C     -0.063809   -2.012572   -1.910548
C      0.094596   -0.509088   -1.577744
C      1.018338    0.114123   -2.671838
C     -1.272746    0.303758   -1.447803
C     -1.711106    1.047326   -2.736935
C     -2.504092   -0.508509   -0.885445
C     -2.535812   -0.777206    0.653645
C     -1.328112   -0.264952    1.420970
C     -1.251530   -0.467676    2.744598
C     -0.221285    0.477823    0.697711
C     -0.898175    1.244199   -0.366925
O     -1.257873    2.408806   -0.271480
H      2.890449   -0.417398   -0.651317
H      2.164498    1.218799   -0.385396
H      2.516759    0.143982    1.003485
H      0.500555   -2.077471    1.406347
H      1.861449   -2.307590    0.295894
H      0.441741   -3.779181   -0.740964
H     -1.034368   -2.929526   -0.203085
H     -0.967909   -2.242291   -2.508444
H      0.794917   -2.375928   -2.519388
H      1.193257    1.194817   -2.488764
H      0.566534   -0.005209   -3.679349
H      2.002939   -0.395625   -2.718055
H     -0.967322    1.806278   -3.055844
H     -1.868885    0.317582   -3.559099
H     -2.661820    1.599423   -2.576153
H     -3.434023    0.061166   -1.106431
H     -2.655465   -1.458427   -1.430631
H     -3.436952   -0.283798    1.080737
H     -2.666646   -1.862487    0.844268
H     -0.397721   -0.114516    3.314808
H     -2.040265   -0.996131    3.271547
H      0.316298    1.168073    1.387933
