75

C      0.142668    3.638252    2.472683
C      1.489289    3.179694    1.891594
C      2.036878    2.004472    2.721247
C      2.482394    4.353836    1.936298
S      1.263316    2.673549    0.154084
O      2.619388    2.117090   -0.256091
N      0.216106    1.256484    0.202782
C      0.094865    0.629538   -1.126051
C     -0.717067   -0.671767   -1.008938
O     -0.081132   -1.532077   -0.085771
Si    -0.496475   -3.210192   -0.325679
C      0.169391   -4.054936    1.207318
C      1.470254   -4.589709    1.203819
C      1.998627   -5.180977    2.355298
C      1.240238   -5.225234    3.527046
C     -0.037239   -4.662379    3.552956
C     -0.563233   -4.061178    2.405657
C      0.485965   -3.905095   -1.761652
C      1.233783   -3.067818   -2.607413
C      1.982361   -3.608465   -3.659363
C      2.005208   -4.990412   -3.862524
C      1.282475   -5.832920   -3.016691
C      0.529470   -5.295363   -1.967521
C     -2.385615   -3.568238   -0.593669
C     -2.737534   -3.425009   -2.089169
C     -2.704696   -5.018594   -0.168033
C     -3.278113   -2.603112    0.225519
C     -0.504206    1.574613   -2.203512
C     -1.780977    2.256680   -1.767302
O     -2.862783    1.606291   -1.792826
C     -1.787382    3.645524   -1.253636
C     -0.994638    4.648324   -1.842969
C     -0.998388    5.946442   -1.321853
C     -1.791502    6.254753   -0.212317
C     -2.610001    5.275879    0.358536
C     -2.604637    3.975530   -0.155633
H     -0.273429    4.479991    1.879941
H     -0.600614    2.810919    2.475819
H      0.267729    3.984432    3.519384
H      2.188484    2.313578    3.775444
H      3.010459    1.656888    2.318724
H      1.328949    1.148029    2.708016
H      3.470462    4.053926    1.528198
H      2.102602    5.202201    1.328494
H      2.626410    4.707079    2.980933
H     -0.727469    1.558235    0.534918
H      1.112980    0.335645   -1.468700
H     -1.724063   -0.411147   -0.634351
H     -0.798041   -1.118953   -2.024987
H      2.088084   -4.548156    0.319137
H      2.990487   -5.609695    2.336735
H      1.651551   -5.684113    4.418234
H     -0.622654   -4.691537    4.465730
H     -1.545445   -3.617121    2.463730
H      1.262740   -1.998630   -2.447162
H      2.557457   -2.960813   -4.308579
H      2.587285   -5.406135   -4.674196
H      1.319812   -6.905677   -3.155887
H      0.013785   -5.972501   -1.300824
H     -2.601880   -2.380171   -2.442700
H     -2.112939   -4.097046   -2.717824
H     -3.804207   -3.695481   -2.263423
H     -2.487393   -5.181995    0.902785
H     -3.778534   -5.246489   -0.325177
H     -2.132044   -5.754317   -0.755602
H     -3.485111   -1.661541   -0.323456
H     -4.273277   -3.054398    0.425723
H     -2.823996   -2.337583    1.200287
H      0.269480    2.315852   -2.486508
H     -0.707000    0.998133   -3.132053
H     -0.393897    4.444353   -2.719604
H     -0.373928    6.708593   -1.769570
H     -1.778232    7.256615    0.199244
H     -3.227887    5.517917    1.216832
H     -3.220325    3.217779    0.318621
