47

C     -2.844131   -1.335743   -0.498121
C     -4.073238   -0.423521   -0.654309
C     -4.978326   -1.135890   -1.657143
C     -4.050107   -2.026530   -2.404176
O     -4.399003   -2.674919   -3.379448
C     -2.647375   -2.012498   -1.878420
C     -2.099917   -3.446535   -1.728065
C     -1.769763   -1.170146   -2.846069
C     -0.496296   -0.619749   -2.193479
C     -0.854827    0.245372   -0.965530
C      0.352301    0.957778   -0.348893
C      0.486986    1.087667    1.060228
C      1.584736    1.780039    1.597990
C      2.520889    2.407598    0.760616
O      3.631525    3.111907    1.248175
S      4.129409    3.169288    2.885579
N      4.598419    1.591304    3.419004
O      3.016861    3.696235    3.748408
O      5.310536    4.090864    2.997477
C      2.337185    2.351370   -0.620733
C      1.261885    1.653266   -1.170587
C     -0.491202    0.454263    2.023344
C     -1.824104    0.103063    1.362735
C     -1.562909   -0.665560    0.063024
H     -3.142880   -2.118790    0.238739
H     -3.782500    0.566979   -1.063758
H     -4.594456   -0.274977    0.316356
H     -5.743580   -1.748371   -1.133648
H     -5.466212   -0.407983   -2.340446
H     -2.003699   -3.934665   -2.721539
H     -1.100378   -3.434658   -1.245730
H     -2.781325   -4.065586   -1.105222
H     -2.351610   -0.301241   -3.230817
H     -1.489457   -1.778183   -3.734176
H      0.025785   -0.024636   -2.967853
H      0.179222   -1.452659   -1.900343
H     -1.553622    1.046341   -1.290706
H      1.682833    1.838258    2.671353
H      3.748225    0.986387    3.410773
H      4.892260    1.681485    4.417356
H      3.032251    2.860643   -1.276593
H      1.142594    1.682433   -2.243180
H     -0.690807    1.146074    2.870777
H     -0.031494   -0.468815    2.438975
H     -2.418921   -0.520491    2.065433
H     -2.394972    1.034847    1.154243
H     -0.866076   -1.499603    0.313900
