47

C      1.158656   -1.864629    2.064390
C      1.708101   -0.894590    3.124759
C      1.265386   -1.472872    4.467145
C      0.096091   -2.324274    4.119638
O     -0.602548   -2.863446    4.964926
C     -0.167687   -2.414463    2.647722
C     -0.407036   -3.876371    2.218328
C     -1.393195   -1.518596    2.313721
C     -1.449161   -1.082296    0.845014
C     -0.159210   -0.324532    0.461773
C     -0.201299    0.278832   -0.945233
C      0.947735    0.270057   -1.781388
C      0.891564    0.867033   -3.050728
C     -0.252897    1.538971   -3.484393
O     -0.233485    2.113727   -4.763626
S     -1.459805    3.111594   -5.421727
N     -1.565152    4.591871   -4.532486
O     -1.111137    3.426959   -6.848486
O     -2.782682    2.398777   -5.390163
C     -1.362916    1.613011   -2.630302
C     -1.328824    1.009276   -1.372264
C      2.232532   -0.415644   -1.377356
C      2.324232   -0.650567    0.130255
C      1.027929   -1.301079    0.625354
H      1.894683   -2.701887    2.013016
H      2.815897   -0.818707    3.070256
H      1.269845    0.118239    3.000722
H      0.972853   -0.665006    5.171807
H      2.067018   -2.101837    4.910519
H     -0.502313   -3.948924    1.114890
H     -1.338775   -4.271232    2.677068
H      0.436293   -4.525139    2.539886
H     -1.372500   -0.595252    2.937059
H     -2.335734   -2.049948    2.571159
H     -1.594304   -1.964717    0.184541
H     -2.342915   -0.437050    0.739754
H     -0.031930    0.530279    1.160835
H      1.753563    0.823006   -3.706097
H     -1.847970    4.357911   -3.555740
H     -0.597970    4.982715   -4.479207
H     -2.261716    2.135063   -2.919349
H     -2.189574    1.138002   -0.733464
H      2.295055   -1.391355   -1.906707
H      3.104848    0.198340   -1.691393
H      3.191442   -1.315007    0.337235
H      2.495068    0.318146    0.649905
H      0.835634   -2.181659   -0.031712
