45

C     -0.306546   -3.179065    1.551212
O     -0.816714   -2.008728    2.177629
C     -2.184840   -1.738279    2.270412
O     -3.033947   -2.589143    1.886756
C     -2.639071   -0.443599    2.875778
C     -3.677954    0.292388    2.011562
C     -3.085734    0.982954    0.770623
C     -2.699668    0.001079   -0.307953
O     -3.631572   -0.601247   -0.908392
C     -1.288120   -0.275224   -0.701688
C     -1.027083   -0.963634   -1.898718
C      0.281720   -1.244928   -2.292622
C      1.369316   -0.851802   -1.493395
O      2.697503   -1.109928   -1.871956
C      3.082038   -1.772911   -3.071798
C      1.122521   -0.180918   -0.280446
C      2.265852    0.277702    0.596298
C      2.822492    1.631933    0.139355
C      1.817914    2.727154    0.326179
O      1.739312    3.323384    1.434984
O      0.937604    3.036576   -0.714639
C     -0.105442    3.993120   -0.576764
C     -0.197993    0.111994    0.099768
H     -0.666242   -4.084180    2.084533
H      0.801988   -3.155503    1.585104
H     -0.631301   -3.213065    0.489523
H     -1.765025    0.217104    3.060880
H     -3.094776   -0.671353    3.863080
H     -4.500252   -0.396091    1.716871
H     -4.139078    1.082023    2.644018
H     -3.868870    1.648430    0.347049
H     -2.255397    1.657321    1.057062
H     -1.838398   -1.280433   -2.542295
H      0.436215   -1.768243   -3.226124
H      2.666199   -2.802417   -3.089321
H      2.727026   -1.200681   -3.954762
H      4.188673   -1.836405   -3.111552
H      3.082568   -0.475631    0.572282
H      1.939653    0.345849    1.657913
H      3.122388    1.580002   -0.929695
H      3.733163    1.867659    0.731437
H     -0.670401    4.055822   -1.529235
H      0.321913    4.991276   -0.343427
H     -0.799669    3.683051    0.232688
H     -0.355885    0.618420    1.039755
