78

C     -0.418716   -7.887192    5.745235
C      0.145893   -7.204191    4.490729
C      0.010706   -5.678805    4.528343
C      0.841434   -4.978337    5.624248
C      2.346481   -5.345020    5.586978
C      3.299379   -4.189287    5.953682
C      3.189101   -2.911518    5.087724
C      3.291472   -3.133318    3.563288
C      2.435300   -2.190908    2.762590
O      1.980248   -1.129359    3.276735
C      2.184940   -2.500468    1.343259
C      1.305390   -1.799297    0.606899
C      1.065476   -2.133602   -0.834041
C      2.094007   -1.454331   -1.737937
C      1.807915   -1.772827   -3.207942
C      2.802632   -1.115349   -4.188998
O      3.273244    0.174094   -3.764361
C      2.543636    1.373838   -3.757956
C      3.239143    2.554429   -3.485767
C      2.566511    3.777927   -3.408174
C      1.175637    3.846707   -3.616186
N      0.499059    5.102514   -3.437847
C     -0.897698    5.294569   -3.699736
O     -1.387000    4.951248   -4.811846
C     -1.778002    5.871426   -2.631363
C     -2.293515    4.777373   -1.680312
C     -3.337793    3.867261   -2.344005
C     -3.975454    2.904131   -1.372130
O     -3.371006    2.565954   -0.314250
N     -5.256458    2.325015   -1.664630
C     -5.582078    1.938205   -3.042231
C     -6.245042    2.173095   -0.597981
C      0.479940    2.666414   -3.934532
C      1.159614    1.444877   -4.021484
H     -1.472137   -7.587341    5.901103
H      0.187298   -7.645467    6.637108
H     -0.379638   -8.992288    5.600163
H     -0.411277   -7.578561    3.595570
H      1.209320   -7.504649    4.350698
H      0.338149   -5.276492    3.535575
H     -1.055988   -5.398728    4.663194
H      0.702828   -3.888851    5.474478
H      0.426328   -5.221554    6.627916
H      2.646878   -5.758525    4.607650
H      2.506385   -6.159609    6.325670
H      4.341161   -4.568513    5.903930
H      3.115269   -3.910805    7.024709
H      2.275790   -2.370249    5.367337
H      4.016304   -2.248887    5.377844
H      4.341190   -3.024874    3.243937
H      2.990317   -4.158013    3.279946
H      2.715475   -3.310917    0.893202
H      0.738489   -0.984103    1.045032
H      0.054638   -1.780537   -1.113776
H      1.084683   -3.234439   -0.983017
H      2.046823   -0.360990   -1.571157
H      3.106817   -1.808214   -1.476373
H      1.852930   -2.872158   -3.367216
H      0.768196   -1.470266   -3.448548
H      3.695616   -1.774815   -4.259564
H      2.352939   -1.048202   -5.210355
H      4.310701    2.519893   -3.306826
H      3.124702    4.676423   -3.185960
H      1.013559    5.878379   -2.983081
H     -2.619145    6.427906   -3.094915
H     -1.179650    6.599825   -2.034608
H     -1.430396    4.159521   -1.334240
H     -2.746499    5.260485   -0.796292
H     -2.867178    3.289429   -3.170279
H     -4.142626    4.502883   -2.774505
H     -4.775944    1.277442   -3.443056
H     -5.657036    2.834819   -3.688059
H     -6.534680    1.374398   -3.082433
H     -6.152757    2.978210    0.161667
H     -7.278802    2.244477   -1.017906
H     -6.135821    1.175971   -0.132054
H     -0.592375    2.674525   -4.112937
H      0.593819    0.572662   -4.306417
