85

C     -3.144522   -4.830637   -5.264716
C     -2.197532   -5.328317   -4.172331
C     -1.400212   -4.192676   -3.512798
C     -2.284461   -3.275248   -2.656119
C     -1.431342   -2.249951   -1.897102
C     -2.277467   -1.189630   -1.172788
C     -3.205844   -1.735246   -0.069223
C     -2.487395   -2.512344    1.045927
C     -1.372672   -1.717716    1.661391
O     -1.633784   -0.606021    2.200827
C      0.012334   -2.222804    1.616806
C      1.048931   -1.479556    2.011857
C      2.454792   -2.019082    2.026761
C      2.907120   -2.362892    3.457794
C      3.705945   -1.246668    4.156305
C      2.916073    0.053128    4.348155
O      2.920134    0.795468    3.130941
C      2.164116    1.951082    2.878440
C      1.391529    2.562650    3.882051
C      0.629229    3.695830    3.593805
C      0.643171    4.253365    2.308679
C     -0.181651    5.476421    2.004005
C     -1.635225    5.127783    1.636585
C     -1.788502    4.544735    0.215708
C     -1.993441    3.024191    0.223970
C     -2.105905    2.513422   -1.178754
O     -3.211260    2.577876   -1.784525
O     -0.967054    2.027688   -1.823791
C     -0.950197    1.656740   -3.194920
C      1.415279    3.650470    1.306718
C      2.170156    2.498307    1.577887
C      2.907552    1.817981    0.446933
C      1.916766    1.184572   -0.536260
C      2.569149    0.137111   -1.384804
O      3.538461    0.445548   -2.131449
O      2.079463   -1.173177   -1.352767
C      2.657703   -2.229301   -2.110760
H     -2.594201   -4.219882   -6.010197
H     -3.972230   -4.228979   -4.830251
H     -3.591618   -5.702382   -5.788206
H     -1.478206   -6.043380   -4.629486
H     -2.779049   -5.882063   -3.403160
H     -0.621597   -4.652298   -2.864801
H     -0.879618   -3.596287   -4.292551
H     -3.004355   -2.736118   -3.307506
H     -2.850994   -3.895539   -1.930280
H     -0.765977   -2.770307   -1.176476
H     -0.776502   -1.717809   -2.621331
H     -1.590095   -0.439677   -0.728656
H     -2.902192   -0.653229   -1.918862
H     -3.985726   -2.383967   -0.520261
H     -3.744930   -0.876363    0.386197
H     -3.224782   -2.756566    1.839136
H     -2.115609   -3.479235    0.649440
H      0.188848   -3.224803    1.245962
H      0.869654   -0.481088    2.380555
H      3.138402   -1.279780    1.559782
H      2.516711   -2.930909    1.395064
H      2.037872   -2.658529    4.089098
H      3.567456   -3.254268    3.404213
H      4.640342   -1.037636    3.590761
H      4.009517   -1.620318    5.156182
H      1.875662   -0.179150    4.665030
H      3.402257    0.663178    5.138193
H      1.369033    2.167463    4.887874
H      0.030376    4.145713    4.375586
H     -0.191356    6.133686    2.901219
H      0.286842    6.072145    1.191315
H     -2.075962    4.453116    2.403022
H     -2.220076    6.071466    1.684242
H     -0.907103    4.797002   -0.409832
H     -2.671609    5.017311   -0.267711
H     -1.137010    2.526370    0.723511
H     -2.920929    2.767879    0.783664
H     -1.164345    2.544376   -3.830267
H     -1.702845    0.864575   -3.388249
H      0.055738    1.268948   -3.453999
H      1.414724    4.065628    0.305672
H      3.535128    2.566474   -0.085510
H      3.602840    1.045772    0.832721
H      1.071639    0.716110    0.015655
H      1.508813    1.977301   -1.195467
H      2.093713   -3.164377   -1.918305
H      3.716563   -2.377062   -1.804740
H      2.607763   -1.995681   -3.199201
