85

C      2.544866   -7.018526    3.287335
C      1.417835   -6.353296    2.499742
C      0.044233   -6.895448    2.927721
C     -1.100907   -6.206903    2.166735
C     -1.503852   -4.876337    2.822991
C     -2.397176   -4.019098    1.906141
C     -1.562790   -3.185598    0.916743
C     -2.464614   -2.312387    0.036067
C     -1.666925   -1.399033   -0.853939
O     -0.525589   -1.001997   -0.495309
C     -2.250206   -0.921880   -2.121905
C     -1.594544   -0.079986   -2.923256
C     -2.154168    0.345250   -4.253463
C     -3.380242    1.262070   -4.119618
C     -3.109560    2.553559   -3.330935
C     -2.128568    3.508722   -4.032086
O     -0.762771    3.206629   -3.727484
C     -0.097745    3.566271   -2.543295
C     -0.786933    4.108983   -1.438810
C     -0.099382    4.465296   -0.277943
C      1.288844    4.285497   -0.190058
C      2.033636    4.737327    1.041333
C      1.639331    3.962940    2.313289
C      2.276616    2.562311    2.420155
C      1.591083    1.480377    1.566768
C      0.139804    1.316323    1.906850
O     -0.193234    0.883903    3.046628
O     -0.828262    1.599340    0.938399
C     -2.225222    1.510040    1.199348
C      1.983014    3.760926   -1.290045
C      1.302791    3.407768   -2.469182
C      2.103043    2.943940   -3.669478
C      2.007351    1.431365   -3.913945
C      2.523406    0.607034   -2.768027
O      2.004110   -0.522291   -2.534068
O      3.608218    1.061418   -2.005428
C      4.209755    0.277053   -0.984350
H      2.507211   -8.122943    3.172519
H      3.522094   -6.659834    2.900301
H      2.470769   -6.763379    4.366742
H      1.573019   -6.558210    1.416909
H      1.473260   -5.254763    2.660324
H     -0.094441   -6.768979    4.026152
H      0.009878   -7.985279    2.704876
H     -1.984991   -6.884346    2.168328
H     -0.812968   -6.059763    1.104717
H     -0.606091   -4.296972    3.122889
H     -2.063166   -5.103138    3.756725
H     -3.120032   -4.662869    1.357842
H     -2.982353   -3.320811    2.546365
H     -0.869782   -2.530801    1.498546
H     -0.954715   -3.860675    0.273827
H     -3.126311   -1.695371    0.671627
H     -3.108747   -2.971467   -0.582398
H     -3.233583   -1.283807   -2.407312
H     -0.617410    0.287460   -2.637095
H     -1.367076    0.860810   -4.838255
H     -2.440043   -0.555483   -4.830373
H     -4.196231    0.703031   -3.615446
H     -3.750273    1.524019   -5.136087
H     -2.763563    2.305099   -2.305998
H     -4.078443    3.082747   -3.216047
H     -2.351950    4.559661   -3.748860
H     -2.271584    3.454062   -5.132255
H     -1.853535    4.276913   -1.470586
H     -0.649462    4.892892    0.550221
H      3.135436    4.681870    0.890321
H      1.796519    5.811568    1.200125
H      0.534432    3.914081    2.425467
H      2.002292    4.560096    3.182171
H      2.237731    2.243676    3.487117
H      3.352366    2.618306    2.141617
H      2.101955    0.512648    1.753349
H      1.707525    1.702544    0.489874
H     -2.466838    0.518752    1.631503
H     -2.530171    2.314936    1.906086
H     -2.787506    1.635237    0.247904
H      3.060471    3.654795   -1.235015
H      3.171881    3.228777   -3.564211
H      1.742376    3.468392   -4.578663
H      2.608574    1.178440   -4.811365
H      0.958691    1.158182   -4.136910
H      4.912354    0.905363   -0.395825
H      3.430525   -0.129281   -0.299683
H      4.769491   -0.563451   -1.443787
