87

C      0.585077   -5.647744    1.281378
C      0.536938   -5.851275   -0.231242
C      0.193097   -4.542101   -0.951302
C      0.123153   -4.747077   -2.473985
C     -0.402079   -3.507227   -3.218319
C      0.599834   -2.347423   -3.204712
C      0.043995   -1.113996   -3.933180
C      1.062203    0.036152   -3.996346
C      1.361144    0.590924   -2.632013
O      0.648924    1.525031   -2.174009
C      2.431782   -0.010425   -1.813906
C      2.542207    0.219653   -0.504627
C      3.535336   -0.542201    0.325835
C      3.229327   -0.450283    1.829377
C      2.096268   -1.393705    2.276337
O      0.858107   -1.110252    1.620495
C      0.066033    0.035301    1.818437
C      0.347824    0.967217    2.835848
C     -0.397472    2.140219    2.950870
C     -1.436567    2.413471    2.055614
N     -2.150383    3.655127    2.163132
C     -2.513198    4.462316    1.027954
O     -2.420718    4.005636   -0.143753
C     -2.987378    5.874632    1.228218
C     -2.127428    6.891624    0.457435
C     -0.768198    7.190854    1.116296
C      0.156784    5.997196    1.170803
O      0.318996    5.429262    2.285062
N      0.846692    5.489608    0.007438
C      1.560158    4.212047    0.112684
C      0.896706    6.248489   -1.248181
C     -1.771748    1.456579    1.087631
C     -1.029041    0.270283    0.959180
C     -1.457499   -0.744019   -0.074343
C     -2.681177   -1.525254    0.421600
C     -3.224031   -2.432770   -0.638011
O     -3.570217   -1.957444   -1.755600
O     -3.383746   -3.795327   -0.362571
C     -3.896594   -4.714607   -1.319875
H      0.834821   -6.609084    1.777256
H      1.356652   -4.893996    1.549259
H     -0.403231   -5.308271    1.655304
H      1.528457   -6.216682   -0.578050
H     -0.227150   -6.626001   -0.468229
H      0.973306   -3.790780   -0.705837
H     -0.784162   -4.168353   -0.580213
H      1.129948   -5.017923   -2.863574
H     -0.564818   -5.594143   -2.693791
H     -1.362238   -3.181863   -2.769336
H     -0.605136   -3.793408   -4.273050
H      0.811679   -2.075481   -2.153465
H      1.546486   -2.670813   -3.690048
H     -0.224694   -1.399874   -4.973532
H     -0.880609   -0.762644   -3.426307
H      1.999454   -0.310243   -4.483613
H      0.644520    0.846988   -4.630469
H      3.084683   -0.739373   -2.278300
H      1.884445    0.932252   -0.026517
H      4.542501   -0.116359    0.134465
H      3.558969   -1.610710    0.017810
H      3.008920    0.600347    2.110270
H      4.146426   -0.744341    2.384083
H      1.967794   -1.342429    3.378433
H      2.383114   -2.439849    2.034612
H      1.149006    0.803514    3.540639
H     -0.145539    2.853067    3.724511
H     -2.209513    4.095989    3.109027
H     -3.005201    6.139020    2.307349
H     -4.033338    5.938792    0.857573
H     -2.693345    7.848445    0.415478
H     -1.993102    6.562564   -0.593359
H     -0.274349    8.020820    0.572589
H     -0.947578    7.564758    2.148715
H      2.341080    4.282368    0.900713
H      0.844398    3.406003    0.380830
H      2.050460    3.931121   -0.842654
H     -0.078841    6.187229   -1.765848
H      1.156106    7.306781   -1.045076
H      1.673500    5.853835   -1.933491
H     -2.624911    1.619252    0.442201
H     -1.705104   -0.211239   -1.018107
H     -0.634524   -1.450468   -0.306249
H     -2.393227   -2.127797    1.311578
H     -3.487973   -0.823282    0.723735
H     -4.919314   -4.410899   -1.628003
H     -3.946926   -5.725219   -0.864681
H     -3.231423   -4.752574   -2.207684
