89

C      4.112600    6.995433   -3.271021
C      4.039016    5.700943   -2.462788
C      2.595155    5.184453   -2.383271
C      2.447856    3.961326   -1.460339
C      3.196064    2.699029   -1.927278
C      2.696803    2.170225   -3.281152
C      3.340973    0.821074   -3.621025
C      2.843101    0.294314   -4.972588
C      3.438667   -1.056325   -5.270261
O      4.423441   -1.119438   -6.056494
C      2.960636   -2.306760   -4.639904
C      1.920707   -2.366651   -3.794975
C      1.528524   -3.652397   -3.123587
C      2.628812   -4.133732   -2.159040
C      2.088761   -5.085284   -1.071585
C      1.722779   -4.342256    0.218101
O      0.632593   -3.453590   -0.012022
C      0.136701   -2.528174    0.924580
C      0.760073   -2.327741    2.168582
C      0.250566   -1.396341    3.074763
C     -0.888348   -0.654738    2.766423
O     -1.350834    0.267359    3.713932
C     -2.480365    1.123228    3.532207
C     -2.639656    2.048077    4.738649
C     -2.856581    1.258506    6.034393
C     -2.982287    2.193566    7.192817
O     -1.944365    2.608863    7.776536
O     -4.249371    2.626259    7.593967
C     -4.456631    3.654731    8.563301
C     -4.176577    5.025543    7.955081
C     -1.528946   -0.857584    1.530438
C     -1.014084   -1.778141    0.601637
C     -1.735755   -2.001146   -0.705965
C     -2.615008   -3.253480   -0.631524
C     -3.230280   -3.545976   -1.962055
O     -4.272665   -2.928942   -2.315398
O     -2.623747   -4.482329   -2.809975
C     -3.123358   -4.800002   -4.108426
C     -2.786175   -3.693361   -5.102954
H      5.163421    7.346479   -3.303907
H      3.753613    6.822592   -4.312586
H      3.489080    7.786387   -2.792509
H      4.420446    5.896973   -1.432523
H      4.696096    4.943497   -2.946718
H      2.214678    4.948626   -3.398602
H      1.950090    5.996577   -1.974683
H      2.805598    4.230802   -0.441500
H      1.365166    3.722513   -1.366721
H      3.038389    1.912119   -1.156670
H      4.287288    2.895960   -1.972390
H      1.590661    2.045817   -3.237062
H      2.948891    2.896995   -4.083715
H      4.444620    0.940721   -3.657457
H      3.100625    0.090784   -2.818326
H      1.736226    0.233932   -4.992040
H      3.143069    1.009686   -5.770347
H      3.508809   -3.215512   -4.863543
H      1.341514   -1.486439   -3.557097
H      1.336832   -4.434144   -3.890562
H      0.578540   -3.485166   -2.575582
H      3.402173   -4.673343   -2.752333
H      3.142628   -3.263499   -1.685704
H      2.883653   -5.824114   -0.821557
H      1.206822   -5.654784   -1.443961
H      1.433182   -5.081683    0.995067
H      2.611048   -3.779275    0.574144
H      1.640509   -2.885933    2.451079
H      0.749771   -1.250587    4.022727
H     -2.335927    1.746260    2.623549
H     -3.398059    0.510807    3.406803
H     -1.724854    2.677275    4.828109
H     -3.513001    2.718464    4.564870
H     -3.781519    0.644105    5.951564
H     -1.999234    0.571865    6.210402
H     -5.515098    3.621086    8.898840
H     -3.810501    3.485217    9.452779
H     -4.862732    5.206813    7.101081
H     -3.128333    5.083712    7.595544
H     -4.337539    5.813885    8.721294
H     -2.429294   -0.309594    1.286027
H     -2.366100   -1.117921   -0.953509
H     -0.994468   -2.106172   -1.527010
H     -2.007046   -4.130581   -0.324797
H     -3.418172   -3.104309    0.124092
H     -4.224628   -4.963616   -4.074132
H     -2.644197   -5.742272   -4.450787
H     -1.687500   -3.558237   -5.155891
H     -3.163658   -3.968574   -6.111922
H     -3.261112   -2.735378   -4.799189
