92

C      2.748152   -6.959348    0.071370
C      2.117548   -5.942802   -0.877421
C      3.155005   -4.916307   -1.355816
C      2.536897   -3.794435   -2.205568
C      2.003409   -4.299758   -3.555302
C      1.619797   -3.131089   -4.471198
C      1.008860   -3.643375   -5.784791
C      0.767824   -2.512491   -6.794486
C     -0.246420   -1.512255   -6.309423
O     -1.388134   -1.911165   -5.950184
C      0.076810   -0.071246   -6.309692
C     -0.822770    0.863782   -5.981547
C     -0.495822    2.328905   -6.071980
C      0.460398    2.782832   -4.959981
C     -0.221638    2.792948   -3.585448
C      0.726416    3.319310   -2.504309
O      0.031654    3.482229   -1.268425
C     -0.420633    2.444158   -0.435471
C      0.009087    1.111869   -0.602122
C     -0.449630    0.106168    0.250157
C     -1.340408    0.403752    1.283469
O     -1.768872   -0.637589    2.121662
C     -2.635695   -0.452359    3.237278
C     -2.848793   -1.782161    3.960726
C     -4.000036   -1.735775    4.982595
C     -3.705026   -0.875726    6.226900
C     -3.894160    0.588527    5.966010
O     -5.029525    1.024005    5.627021
O     -2.804144    1.456319    6.085216
C     -2.864501    2.822732    5.689614
C     -1.493950    3.457890    5.854619
C     -1.776232    1.730035    1.453377
C     -1.325982    2.749948    0.601647
C     -1.823608    4.161638    0.824018
C     -1.148960    4.819869    2.032411
C      0.284873    5.139802    1.752519
O      1.180798    4.291604    2.023683
O      0.611645    6.365306    1.160543
C      1.942831    6.731430    0.800809
C      2.362135    6.026820   -0.484743
H      3.577230   -7.497407   -0.435241
H      3.142002   -6.450962    0.975461
H      1.984546   -7.701789    0.385354
H      1.699046   -6.492890   -1.746510
H      1.286214   -5.424519   -0.350126
H      3.952476   -5.431254   -1.936378
H      3.634666   -4.447290   -0.468452
H      1.719055   -3.297806   -1.637762
H      3.328099   -3.034792   -2.391308
H      2.783692   -4.912410   -4.058570
H      1.107626   -4.935650   -3.385654
H      2.528067   -2.529735   -4.696160
H      0.883774   -2.479692   -3.950106
H      0.052954   -4.173040   -5.574876
H      1.704624   -4.378063   -6.248055
H      1.735857   -2.013034   -7.021866
H      0.396051   -2.952399   -7.744525
H      1.069585    0.236395   -6.618247
H     -1.832062    0.580943   -5.702629
H     -0.036157    2.540693   -7.063304
H     -1.438694    2.916281   -6.017033
H      0.801944    3.813741   -5.199802
H      1.358283    2.127731   -4.934341
H     -0.551267    1.764743   -3.325575
H     -1.117911    3.449613   -3.623519
H      1.106348    4.316029   -2.812704
H      1.608454    2.657252   -2.378424
H      0.706552    0.840052   -1.380675
H     -0.105715   -0.911345    0.109693
H     -3.610778   -0.052808    2.883213
H     -2.161100    0.268559    3.930934
H     -1.906016   -2.091281    4.460617
H     -3.094291   -2.556951    3.203082
H     -4.941352   -1.404671    4.489234
H     -4.175613   -2.777443    5.329827
H     -2.670930   -1.066304    6.591624
H     -4.402094   -1.173009    7.040899
H     -3.605517    3.364858    6.317350
H     -3.172056    2.889931    4.623399
H     -0.739452    2.893919    5.265509
H     -1.201550    3.450998    6.925447
H     -1.519399    4.508628    5.497416
H     -2.467501    1.981890    2.245962
H     -2.918554    4.126854    1.007040
H     -1.683662    4.793852   -0.079235
H     -1.684119    5.762077    2.276565
H     -1.221540    4.158142    2.922391
H      1.976482    7.829581    0.633515
H      2.648567    6.487618    1.625812
H      1.650463    6.277810   -1.300889
H      3.380843    6.358606   -0.778464
H      2.377057    4.925897   -0.336665
