83

C      3.267380    4.465877    2.278769
C      4.207261    4.325890    3.477342
C      5.124867    3.096498    3.375625
C      4.356769    1.772554    3.514203
C      5.324364    0.580821    3.596210
C      4.601392   -0.774181    3.537843
C      3.706033   -1.024837    4.764168
C      3.178831   -2.466327    4.821268
C      2.345868   -2.818139    3.613628
O      2.845150   -3.577410    2.739389
C      0.992275   -2.274231    3.374346
C      0.302064   -1.555865    4.270505
C     -1.057079   -1.010570    3.938541
C     -0.943129    0.180659    2.975357
C     -2.310765    0.657124    2.456430
C     -2.943800   -0.302173    1.435101
O     -2.023505   -0.640714    0.396556
C     -1.542173    0.236192   -0.590402
C     -2.193565    1.446460   -0.890108
C     -1.694935    2.293692   -1.880326
C     -0.542848    1.955526   -2.594338
O     -0.082701    2.855299   -3.570893
C      1.038229    2.651475   -4.432648
C      0.686196    1.746180   -5.572424
O      1.290979    1.871893   -6.671958
O     -0.275272    0.744948   -5.402396
C     -0.667540   -0.129676   -6.454567
C     -1.684009   -1.131838   -5.931297
C      0.110271    0.742780   -2.305855
C     -0.376743   -0.112981   -1.303077
C      0.357042   -1.403484   -1.013073
C     -0.009853   -2.507000   -2.011414
C     -1.443057   -2.920544   -1.880894
O     -1.779579   -3.737601   -0.980955
O     -2.395496   -2.374357   -2.748873
C     -3.780706   -2.709454   -2.712450
C     -4.476293   -2.005829   -1.551919
H      3.845099    4.444938    1.328890
H      2.513428    3.650712    2.271980
H      2.729986    5.435428    2.343507
H      4.844285    5.235366    3.526000
H      3.610108    4.280087    4.414475
H      5.671780    3.116096    2.407153
H      5.878711    3.164549    4.191684
H      3.736650    1.809012    4.435787
H      3.687259    1.638967    2.636521
H      5.924529    0.644645    4.530775
H      6.029141    0.629909    2.737603
H      5.372308   -1.575067    3.482514
H      3.992285   -0.824512    2.608704
H      2.848197   -0.319732    4.753872
H      4.290072   -0.833515    5.691120
H      4.040734   -3.165481    4.895655
H      2.578364   -2.606977    5.745427
H      0.538281   -2.482317    2.412510
H      0.701265   -1.361161    5.257650
H     -1.549442   -0.671799    4.875923
H     -1.675267   -1.824494    3.503320
H     -0.282377   -0.070003    2.117624
H     -0.459077    1.024314    3.516184
H     -2.174970    1.649797    1.978156
H     -3.008149    0.797846    3.308997
H     -3.870545    0.137089    1.010074
H     -3.251383   -1.237111    1.946402
H     -3.093551    1.741476   -0.371821
H     -2.209800    3.221903   -2.095737
H      1.338758    3.637429   -4.843836
H      1.907332    2.254635   -3.869867
H      0.220237   -0.677288   -6.841605
H     -1.122004    0.459680   -7.280025
H     -1.221401   -1.755927   -5.138527
H     -2.021646   -1.790255   -6.759409
H     -2.565484   -0.599990   -5.511090
H      0.996904    0.452392   -2.852456
H      1.452367   -1.221447   -1.073672
H      0.162852   -1.753143    0.023775
H      0.187332   -2.161810   -3.049227
H      0.639070   -3.390956   -1.826537
H     -3.911946   -3.812243   -2.630104
H     -4.248745   -2.376389   -3.664227
H     -5.563877   -2.225437   -1.581935
H     -4.068937   -2.363325   -0.581976
H     -4.327648   -0.907375   -1.628565
