33

C      2.546507    1.184078   -2.578766
C      1.835607   -0.111027   -2.322669
O      1.057995   -0.540580   -3.161051
C      2.052547   -0.880797   -1.045569
C      1.484768   -0.148976    0.180315
C     -0.018181    0.028701    0.097671
C     -0.866349   -0.943601    0.498897
S     -2.630255   -0.843451    0.307883
C     -2.473431   -2.268438   -0.809224
C     -1.540958   -3.322915   -0.190885
S     -0.334417   -2.577243    0.966880
C     -0.528538    1.318508   -0.423464
C     -0.276952    2.507768    0.279583
C     -0.725500    3.732469   -0.224416
C     -1.421436    3.779106   -1.435405
C     -1.668665    2.601123   -2.145256
C     -1.222490    1.374684   -1.644384
H      3.251090    1.421562   -1.754440
H      1.803288    2.004573   -2.663244
H      3.121035    1.112436   -3.525823
H      3.143871   -1.031687   -0.901823
H      1.591582   -1.888631   -1.129806
H      1.983049    0.839264    0.279583
H      1.754355   -0.712381    1.099192
H     -2.055484   -1.921944   -1.779220
H     -3.476271   -2.705492   -0.999195
H     -0.996121   -3.863380   -0.993504
H     -2.146104   -4.060767    0.377067
H      0.261964    2.485517    1.218824
H     -0.531984    4.645769    0.323149
H     -1.766473    4.728081   -1.824989
H     -2.202274    2.638735   -3.086099
H     -1.408064    0.472169   -2.212097
