36

C     -2.900216    0.001132    0.604306
C     -1.581987   -0.075427   -0.106092
O     -1.027853   -1.157524   -0.220828
C     -0.927935    1.162671   -0.662457
C     -0.089646    1.899911    0.402259
C      0.342360    3.276072   -0.124612
C      1.122208    1.076699    0.841010
C      1.181333    0.471510    2.048874
S      2.502292   -0.626953    2.508502
C      1.252953   -1.945508    2.507014
C     -0.019129   -1.467225    3.226664
S     -0.193848    0.354897    3.173364
C      2.269727    0.945802   -0.087295
C      2.315265   -0.104437   -1.017547
C      3.409167   -0.233168   -1.878679
C      4.465668    0.679518   -1.810501
C      4.432210    1.719529   -0.877199
C      3.340284    1.851103   -0.013946
H     -2.796550   -0.408016    1.630584
H     -3.655169   -0.595186    0.050806
H     -3.253851    1.051242    0.675597
H     -0.299039    0.896709   -1.539289
H     -1.725032    1.839734   -1.040476
H     -0.752900    2.115507    1.266247
H     -0.550765    3.905409   -0.326553
H      0.964637    3.797906    0.633523
H      0.922147    3.179186   -1.067510
H      1.014103   -2.209842    1.453974
H      1.662421   -2.847970    3.007674
H      0.024598   -1.773424    4.293156
H     -0.913357   -1.937791    2.766406
H      1.511014   -0.826187   -1.070677
H      3.439801   -1.042888   -2.596168
H      5.312216    0.577903   -2.477151
H      5.253668    2.421944   -0.820760
H      3.327891    2.655821    0.710696
