36

C     -1.159230    1.071729   -5.352963
C     -0.614436    2.281787   -4.594565
C     -1.718583    3.100228   -3.900379
C     -2.395554    2.367893   -2.726807
C     -1.456355    2.067360   -1.580465
O     -0.462418    2.816248   -1.377975
C     -1.686254    0.951065   -0.639582
C     -2.845351    0.286349   -0.551071
C     -3.037999   -0.815156    0.404522
O     -4.156840   -1.394261    0.457200
O     -1.992996   -1.217082    1.243403
C     -2.125138   -2.276636    2.184244
C     -0.827624   -2.449803    2.917445
C     -0.570700   -1.713281    4.085621
C      0.654830   -1.846257    4.746171
C      1.634661   -2.704251    4.238900
C      1.392471   -3.426988    3.067344
C      0.168261   -3.296848    2.403792
H     -1.544357    0.306556   -4.647728
H     -0.341915    0.610623   -5.946559
H     -1.969558    1.379055   -6.047649
H      0.145585    1.944891   -3.858138
H     -0.098317    2.943725   -5.323237
H     -2.495009    3.372697   -4.648212
H     -1.282140    4.054536   -3.532928
H     -3.217519    3.006744   -2.339218
H     -2.855437    1.433443   -3.107746
H     -0.872278    0.693864    0.028063
H     -3.686320    0.559431   -1.174730
H     -2.393744   -3.217084    1.654758
H     -2.941658   -2.041394    2.901809
H     -1.317514   -1.037211    4.483380
H      0.846427   -1.281019    5.649104
H      2.583171   -2.804903    4.750426
H      2.154929   -4.085077    2.671027
H     -0.002840   -3.854519    1.491243
