36

C      0.495129   -2.131413    5.339456
C     -0.045471   -2.500715    3.958517
C     -0.907395   -1.388276    3.335262
C     -0.128876   -0.106994    2.988910
C      0.952838   -0.351004    1.967356
O      2.142808   -0.457476    2.368035
C      0.687428   -0.501270    0.519330
C     -0.528729   -0.396434   -0.031569
C     -0.742135   -0.553470   -1.478371
O     -1.908309   -0.433874   -1.942494
O      0.334891   -0.835779   -2.328580
C      0.207599   -0.947605   -3.744383
C     -0.018997    0.406647   -4.358887
C     -1.254364    0.730786   -4.944473
C     -1.460000    1.999335   -5.496159
C     -0.437471    2.951661   -5.464142
C      0.792287    2.637580   -4.878963
C      1.001978    1.370336   -4.326106
H     -0.330230   -1.801743    6.005630
H      1.254169   -1.325869    5.261514
H      0.982399   -3.019629    5.793977
H      0.798198   -2.763063    3.285178
H     -0.676538   -3.409552    4.065017
H     -1.730471   -1.128445    4.036001
H     -1.383410   -1.788192    2.414573
H     -0.834263    0.662349    2.610981
H      0.316135    0.324515    3.910372
H      1.541470   -0.704452   -0.116028
H     -1.396930   -0.189281    0.578418
H     -0.612116   -1.655595   -3.997053
H      1.148024   -1.374516   -4.152402
H     -2.057546    0.004974   -4.972288
H     -2.412886    2.244691   -5.947038
H     -0.598626    3.933144   -5.890956
H      1.582566    3.376638   -4.852161
H      1.957428    1.139675   -3.871091
