51

C      2.122017   -0.593507   -0.785440
C      3.039998    0.200233    0.107574
N      2.229291    0.467854    1.322100
C      0.796526    0.204905    0.977593
C      0.313560   -1.068722    1.664599
O     -0.098638   -2.056186    0.994893
O      0.312699   -1.121513    3.062328
C     -0.138041   -2.259466    3.786386
C     -0.091325    1.380978    1.389197
C      0.455865    2.649669    1.681115
C     -0.376218    3.732470    1.980298
C     -1.762608    3.574695    1.976333
C     -2.321827    2.334920    1.665348
C     -1.496176    1.248360    1.364733
C      0.834309    0.115906   -0.547767
C     -0.071136   -0.547990   -1.527527
O     -1.280728   -0.660312   -1.402101
C      0.717197   -0.885686   -2.782214
C      0.493703   -2.352274   -3.179677
C      0.377955    0.064820   -3.962394
C      0.489607    1.531800   -3.610459
C      1.720790    2.199959   -3.723539
C      1.838182    3.534457   -3.323284
C      0.729953    4.211848   -2.807931
C     -0.499771    3.557982   -2.697917
C     -0.622700    2.224876   -3.100206
C      2.136933   -0.696377   -2.270577
O      3.147733   -0.775501   -2.951373
H      2.090618   -1.639171   -0.395943
H      3.957817   -0.379556    0.350834
H      3.327723    1.162029   -0.371797
H      2.562317   -0.157873    2.093499
H     -0.039976   -2.061948    4.873490
H      0.478312   -3.145356    3.524180
H     -1.204806   -2.460724    3.551734
H      1.524499    2.816366    1.668191
H      0.055624    4.698776    2.206938
H     -2.403993    4.415991    2.204994
H     -3.397584    2.216747    1.649086
H     -1.956238    0.303256    1.106754
H      0.924146    1.168170   -0.920147
H     -0.565962   -2.517258   -3.470395
H      0.733746   -3.031155   -2.332350
H      1.142153   -2.621713   -4.040851
H     -0.656000   -0.144736   -4.315589
H      1.050336   -0.158513   -4.819989
H      2.590948    1.685413   -4.110619
H      2.790456    4.041876   -3.407131
H      0.824280    5.243095   -2.493333
H     -1.356643    4.082174   -2.294891
H     -1.578482    1.726970   -2.995412
