35

C     -0.638252    3.722483    1.525020
C     -0.869768    2.496493    0.683843
C     -1.019527    2.624071   -0.646211
C     -1.138853    1.408677   -1.542395
C     -2.594890    0.900788   -1.582923
C     -0.723383    1.800839   -2.976164
C     -0.172250    0.318152   -1.014788
C     -0.356450   -0.033501    0.512322
C     -1.005387    1.138234    1.334159
C      0.971229   -0.360383    1.142415
O      1.956135    0.356951    1.046128
C      0.968140   -1.590728    1.974574
C     -0.496471   -2.009337    2.001806
C     -1.147141   -1.361819    0.767247
O     -1.101400   -2.256064   -0.320791
H      0.317889    4.203465    1.229169
H     -1.470110    4.443302    1.376936
H     -0.585476    3.468976    2.604354
H     -0.948495    3.612979   -1.094599
H     -3.268409    1.689012   -1.983468
H     -2.674206    0.006954   -2.238493
H     -2.969152    0.619331   -0.581076
H      0.313448    2.201981   -2.991325
H     -1.401274    2.582742   -3.382723
H     -0.765257    0.918795   -3.651336
H     -0.226934   -0.568866   -1.676253
H      0.860158    0.705168   -1.169124
H     -2.093449    0.973448    1.472367
H     -0.596881    1.167514    2.369098
H      1.338000   -1.377294    3.000559
H      1.595923   -2.370782    1.492876
H     -0.977392   -1.608725    2.921912
H     -0.602478   -3.116185    1.997871
H     -2.220592   -1.172211    0.980329
H     -0.158951   -2.544360   -0.445645
