33

C     -0.909868    0.951721    2.319634
C     -0.113116    0.354741    1.191450
C     -0.182539    0.915986   -0.031224
C      0.575699    0.395552   -1.239170
C      1.403265   -0.903866   -0.982224
C      0.916659   -1.751786    0.223232
C      1.965510   -2.844709    0.521859
C     -0.429341   -2.449219   -0.078840
C      0.784920   -0.831697    1.456884
C     -0.360881    0.230757   -2.399968
O     -1.289494   -0.562127   -2.406344
C     -0.080480    1.126037   -3.561854
C      1.128801    1.957877   -3.139933
C      1.459514    1.486850   -1.762774
O      2.372606    1.972599   -1.111404
H     -1.993960    0.885637    2.088225
H     -0.719649    0.417702    3.274198
H     -0.629906    2.017866    2.455696
H     -0.819738    1.786913   -0.173120
H      2.461928   -0.620339   -0.783150
H      1.436419   -1.534382   -1.899559
H      2.953903   -2.394216    0.757800
H      1.654334   -3.461770    1.392547
H      2.090305   -3.515675   -0.355555
H     -0.363317   -3.035666   -1.020353
H     -0.701016   -3.143938    0.745054
H     -1.257753   -1.719411   -0.173607
H      0.398413   -1.417768    2.319734
H      1.785768   -0.439809    1.743207
H     -0.958431    1.778002   -3.759993
H      0.152253    0.518299   -4.462691
H      0.876716    3.040109   -3.121740
H      1.989437    1.779231   -3.819899
