24

O      0.339594    0.546618    2.644260
C     -0.432570    0.495559    1.648636
C     -0.554093    1.669921    0.766648
C      0.102426    2.874712    0.928737
C     -0.307539    3.665978   -0.122634
C     -1.186444    2.898641   -0.859569
O     -1.312743    1.715432   -0.304676
C     -1.177885   -0.778548    1.352946
F     -1.186900   -1.586083    2.479706
F     -2.496647   -0.482348    1.046223
C     -0.509055   -1.514186    0.212945
C      0.672319   -2.243137    0.444665
C      1.319845   -2.896431   -0.608247
C      0.802792   -2.820648   -1.903448
C     -0.360428   -2.087568   -2.149104
C     -1.012416   -1.432600   -1.099758
H      0.795944    3.145846    1.713923
H     -0.001716    4.682878   -0.328716
H     -1.700617    3.209690   -1.758980
H      1.094353   -2.301909    1.440305
H      2.225793   -3.458074   -0.420305
H      1.306433   -3.325500   -2.717653
H     -0.755615   -2.023195   -3.154701
H     -1.905909   -0.861601   -1.316944
