29

O     -3.527074    1.409558   -0.183852
C     -2.416595    1.256353    0.390519
C     -1.721285    0.004028    0.255899
C     -1.122614   -1.035900    0.144845
C     -0.395254   -2.270020    0.013655
C     -1.083794   -3.478397   -0.160491
C     -0.372789   -4.676418   -0.287760
C      1.024941   -4.669893   -0.241431
C      1.713660   -3.465213   -0.067740
C      1.005712   -2.265531    0.059850
C     -1.804860    2.381595    1.176167
F     -1.459457    1.921475    2.436875
F     -2.733014    3.398034    1.343042
C     -0.585275    2.911157    0.454385
C     -0.721561    3.888920   -0.548709
C      0.399006    4.343427   -1.250827
C      1.662248    3.816703   -0.971753
C      1.806839    2.829397    0.005601
C      0.690054    2.372359    0.711702
H     -2.166464   -3.493764   -0.197694
H     -0.904844   -5.609323   -0.422227
H      1.573835   -5.597493   -0.340036
H      2.795407   -3.461161   -0.032019
H      1.548182   -1.337078    0.194078
H     -1.694884    4.296373   -0.791857
H      0.286620    5.100077   -2.016573
H      2.527834    4.167754   -1.518544
H      2.784309    2.413024    0.212284
H      0.821276    1.593135    1.451998
