26

O     -3.028263   -1.796650    0.014952
C     -2.241086   -0.825732    0.188835
C     -1.684583   -0.584647    1.552731
C     -1.872310   -1.550748    2.562344
C     -1.355702   -1.351599    3.846035
C     -0.646920   -0.187154    4.143110
C     -0.455049    0.781594    3.157390
C     -0.969540    0.588823    1.871591
C     -1.894143    0.031073   -1.009359
F     -2.317824    1.329966   -0.781641
F     -2.563371   -0.435987   -2.129351
C     -0.414211   -0.003695   -1.296351
N      0.298938    1.157421   -1.331871
C      1.632881    1.175975   -1.595083
C      2.312845   -0.017306   -1.845952
C      1.607489   -1.221273   -1.827490
C      0.237875   -1.220518   -1.556551
H     -2.413389   -2.466556    2.359892
H     -1.504598   -2.102712    4.611073
H     -0.247562   -0.034787    5.137488
H      0.092130    1.686131    3.390017
H     -0.807277    1.366957    1.141894
H      2.165062    2.117618   -1.610526
H      3.374560   -0.008330   -2.055791
H      2.120815   -2.153513   -2.024538
H     -0.308619   -2.155410   -1.546599
