27

O     -3.371599   -1.573741    1.092305
C     -2.257910   -1.227859    0.609842
C     -1.077933   -1.172445    1.524121
C     -1.282245   -1.114307    2.917409
C     -0.196531   -1.055500    3.796093
C      1.107455   -1.057295    3.299570
C      1.328318   -1.120484    1.923216
C      0.246760   -1.180035    1.039338
C     -2.173806   -0.925777   -0.880559
Br    -3.952771   -0.662233   -1.633534
Br    -1.454592   -2.526203   -1.740282
C     -1.390112    0.353713   -1.169992
C     -0.563399    0.476375   -2.307528
C      0.111843    1.671712   -2.572563
C     -0.046496    2.770341   -1.727344
C     -0.893118    2.681973   -0.622368
C     -1.571416    1.490567   -0.352190
H     -2.283380   -1.103330    3.329978
H     -0.367410   -1.006698    4.863805
H      1.946811   -1.011461    3.981366
H      2.340344   -1.126038    1.539265
H      0.459611   -1.239749   -0.017301
H     -0.436555   -0.340245   -3.003050
H      0.752709    1.748535   -3.441497
H      0.475863    3.694820   -1.936941
H     -1.030912    3.540424    0.022294
H     -2.239744    1.457215    0.498908
