35

C     -1.554496   -0.233963   -0.626298
C     -2.203109   -0.304949   -1.998946
C     -3.017138    1.017247   -2.002385
C     -2.336434    1.862050   -0.949928
O     -2.706448    2.971693   -0.601039
C     -1.099591    1.191569   -0.475521
C     -0.641894    1.078206    0.943944
C      0.167110   -0.244526    0.756108
C      0.279018   -1.023169    2.070750
C      1.556970    0.135582    0.208716
C      1.457750    0.835173   -1.190377
C      2.647863    1.810459   -1.336063
C      1.597037   -0.217827   -2.318961
C      0.113225    1.640886   -1.371094
O     -0.485203   -1.043348   -0.238106
H     -2.394654   -0.477306    0.082434
H     -2.865208   -1.192642   -2.093407
H     -1.446142   -0.311500   -2.811044
H     -2.977022    1.511935   -2.996008
H     -4.070986    0.826601   -1.705746
H     -0.022214    1.943631    1.269974
H     -1.495824    0.962675    1.652301
H      0.779528   -0.405092    2.846613
H      0.865981   -1.953644    1.917272
H     -0.732211   -1.304430    2.434295
H      2.052159    0.805563    0.947813
H      2.196468   -0.772760    0.143000
H      3.614389    1.270074   -1.236567
H      2.625527    2.312102   -2.327954
H      2.611375    2.597060   -0.551462
H      0.788426   -0.971587   -2.292890
H      2.564039   -0.759338   -2.234017
H      1.570650    0.270643   -3.317049
H      0.291428    2.710922   -1.120425
H     -0.177009    1.655481   -2.444904
