35

C     -2.224493   -0.923217   -0.705373
C     -3.374658   -0.073575   -1.220286
C     -4.097522    0.270632    0.110070
C     -3.034467    0.057417    1.163244
O     -3.212366    0.171270    2.365462
C     -1.723160   -0.211353    0.520894
C     -0.731707   -1.252830    0.932685
C     -0.090926   -1.444393   -0.478727
C      0.530577   -2.836869   -0.626483
C      0.964338   -0.336166   -0.663327
C      0.318867    1.091611   -0.623844
C      1.364460    2.086973   -0.071786
C     -0.029021    1.554365   -2.061463
C     -0.969593    1.149301    0.285071
O     -1.103644   -1.246585   -1.472390
H     -2.709569   -1.905067   -0.444498
H     -4.033363   -0.648767   -1.906256
H     -3.011786    0.844494   -1.728238
H     -4.454890    1.322246    0.113480
H     -4.943957   -0.427749    0.285433
H     -0.018350   -0.890250    1.706580
H     -1.227333   -2.178688    1.308788
H      1.313075   -2.996691    0.145948
H      0.988909   -2.948160   -1.632180
H     -0.251330   -3.617347   -0.511010
H      1.727868   -0.443589    0.140311
H      1.506739   -0.489544   -1.622829
H      1.662416    1.812174    0.963287
H      2.279021    2.088462   -0.703968
H      0.950831    3.118658   -0.048679
H     -0.770573    0.893928   -2.547885
H      0.880055    1.567214   -2.700963
H     -0.449059    2.583420   -2.051774
H     -0.686819    1.515401    1.297775
H     -1.669631    1.923059   -0.100621
