44

O     -0.558204   -0.283251    3.470223
C     -0.610165   -0.568415    2.242450
C      0.409887    0.056987    1.328954
C     -0.135723    1.367445    0.727018
N      0.758394    2.022488   -0.257160
C      0.628253    1.570744   -1.653730
C      1.420626    0.288260   -1.945552
C      2.732273    0.193637   -1.194687
C      3.633423   -0.951689   -1.475641
C      4.128240   -1.745648   -0.423411
C      4.965076   -2.833238   -0.690578
C      5.315797   -3.140679   -2.007452
F      6.127697   -4.195638   -2.264466
C      4.829184   -2.360582   -3.059464
C      3.990851   -1.272361   -2.797674
C      3.030811    1.045692   -0.199060
C      2.158089    2.216316    0.157505
C     -1.682373   -1.477103    1.746976
C     -1.907678   -1.677106    0.369186
C     -2.920817   -2.534989   -0.069354
C     -3.725578   -3.205501    0.857048
C     -4.768064   -4.088191    0.402842
N     -5.606129   -4.797799    0.037680
C     -3.515378   -3.013931    2.226110
C     -2.503586   -2.156497    2.668243
H      1.324665    0.270069    1.921924
H      0.698756   -0.670349    0.550150
H     -0.313577    2.083132    1.559009
H     -1.131500    1.185538    0.267571
H     -0.440166    1.421606   -1.922686
H      1.006600    2.378366   -2.318388
H      0.797327   -0.594977   -1.696566
H      1.607098    0.243898   -3.038557
H      3.854015   -1.533294    0.602707
H      5.338180   -3.439676    0.124706
H      5.103547   -2.596500   -4.079650
H      3.640957   -0.672511   -3.627408
H      3.970572    0.948488    0.331721
H      2.220021    2.412752    1.249851
H      2.561140    3.116868   -0.352709
H     -1.316174   -1.169300   -0.378654
H     -3.077676   -2.673097   -1.132576
H     -4.133259   -3.527656    2.952978
H     -2.362073   -2.030142    3.734339
