52

O     -3.235888    3.351237   -1.656137
C     -2.555934    3.208283   -0.601913
C     -1.056865    3.060172   -0.701879
C     -0.624649    2.396614   -2.023793
N      0.829233    2.155292   -2.075783
C      1.214029    0.864982   -1.467846
C      0.866875   -0.308591   -2.430641
C      1.985881   -1.350141   -2.587123
N      2.652762   -1.590856   -1.303631
C      2.811982   -2.931260   -0.813834
C      3.747854   -3.826373   -1.388376
C      4.634970   -3.413757   -2.546135
F      5.733228   -4.248992   -2.656992
F      3.913111   -3.477906   -3.723424
F      5.105895   -2.125379   -2.369445
C      3.806557   -5.149167   -0.905569
C      2.992661   -5.572817    0.158809
N      3.077078   -6.924470    0.648472
O      3.971424   -7.814002    0.098131
O      2.345266   -7.309957    1.584270
C      2.095953   -4.660025    0.734162
C      2.005487   -3.356741    0.248907
C      3.119196   -0.466255   -0.482539
C      2.711617    0.877718   -1.096478
C     -3.244502    3.243442    0.713462
C     -2.555246    3.595416    1.890848
C     -3.222118    3.628772    3.120538
F     -2.548816    3.978710    4.244795
C     -4.581424    3.311755    3.189673
F     -5.228001    3.342499    4.381434
C     -5.276582    2.967128    2.028669
C     -4.615603    2.937476    0.796644
H     -0.695159    2.441816    0.145794
H     -0.594685    4.067647   -0.622743
H     -0.888870    3.072536   -2.865462
H     -1.193488    1.452577   -2.177597
H      1.323646    2.947119   -1.600611
H      0.654951    0.711370   -0.516610
H     -0.042574   -0.823430   -2.049523
H      0.618009    0.078072   -3.443410
H      1.554662   -2.292254   -2.992740
H      2.734790   -0.977521   -3.319349
H      4.488893   -5.855436   -1.359598
H      1.455517   -4.956754    1.554578
H      1.290872   -2.675131    0.692392
H      2.677472   -0.542172    0.535017
H      4.224699   -0.508572   -0.384846
H      2.914774    1.684884   -0.359165
H      3.325294    1.078281   -2.002331
H     -1.507488    3.864481    1.862715
H     -6.329836    2.723420    2.081356
H     -5.174152    2.663384   -0.089876
