54

O     -4.665564   -0.577739   -1.674028
C     -3.771275    0.310482   -1.719942
C     -3.688767    1.343079   -0.628665
C     -3.074179    0.757277    0.649643
N     -1.782447    0.103607    0.368230
C     -0.633310    1.036134    0.409704
C      0.492081    0.493331   -0.492178
C      1.033150   -0.840400    0.048453
N      1.206041   -0.795978    1.508253
C      1.604116   -1.986304    2.210165
C      2.806548   -2.627832    1.867634
C      3.243073   -3.749344    2.576335
C      2.480043   -4.246638    3.635725
C      2.957134   -5.371924    4.392462
N      3.348981   -6.272238    5.001793
C      1.266706   -3.629710    3.969263
C      0.821947   -2.507959    3.260469
Cl    -0.736076   -1.803281    3.685595
C      1.152792    0.489666    2.215711
C     -0.131312    1.268003    1.864817
C     -2.797857    0.308347   -2.829159
C     -2.728731    1.444130   -3.651125
C     -1.843628    1.494408   -4.728705
C     -1.010315    0.414740   -5.006101
F     -0.172265    0.490522   -6.076602
C     -1.046262   -0.729556   -4.189915
C     -1.950673   -0.795628   -3.091682
C     -1.947679   -1.947122   -2.274707
C     -1.085784   -3.010867   -2.553535
C     -0.207085   -2.940950   -3.634518
C     -0.183880   -1.805942   -4.444927
H     -4.711905    1.719286   -0.400123
H     -3.087811    2.217064   -0.965554
H     -3.783037    0.003235    1.064926
H     -2.968543    1.560552    1.412558
H     -1.640214   -0.674634    1.056717
H     -0.931814    2.021655   -0.017690
H      1.320164    1.237903   -0.537110
H      0.119204    0.355634   -1.528790
H      2.000967   -1.068934   -0.447657
H      0.316265   -1.652598   -0.202714
H      3.423717   -2.240758    1.068278
H      4.184458   -4.214866    2.311085
H      0.667233   -4.020863    4.779441
H      2.043174    1.089557    1.920741
H      1.206461    0.343060    3.318251
H     -0.925608    1.003483    2.597995
H      0.071415    2.350977    2.005655
H     -3.378493    2.293587   -3.467265
H     -1.810594    2.374398   -5.359609
H     -2.589911   -2.033142   -1.411549
H     -1.087811   -3.886805   -1.920001
H      0.463282   -3.766833   -3.841996
H      0.513863   -1.774010   -5.269776
