43

O      0.918769    3.007835   -0.889383
C      0.550935    2.045926   -0.160733
C     -0.421288    2.305567    0.960097
C     -1.663374    3.114799    0.513945
N     -2.705478    2.321451   -0.177363
C     -2.438147    2.044176   -1.612904
C     -2.897742    0.648411   -2.072378
C     -2.520747   -0.403167   -1.057333
C     -2.040609   -1.748046   -1.486667
C     -2.475605   -2.304214   -2.705872
C     -2.020787   -3.560681   -3.117431
C     -1.132153   -4.281603   -2.317697
F     -0.692175   -5.499518   -2.719128
C     -0.699809   -3.748462   -1.102510
C     -1.147255   -2.490836   -0.688466
C     -2.712344   -0.110226    0.235918
C     -3.288553    1.220396    0.620811
C      1.111856    0.701028   -0.411282
C      1.448139   -0.154324    0.653052
C      2.027676   -1.401824    0.399720
C      2.268154   -1.810353   -0.915657
Br     3.060605   -3.513553   -1.259517
C      1.928260   -0.969889   -1.979485
C      1.360448    0.282836   -1.729787
H     -0.732035    1.359892    1.446289
H      0.117232    2.894288    1.733214
H     -1.359478    3.975737   -0.121232
H     -2.119113    3.567867    1.421272
H     -2.967482    2.807152   -2.221916
H     -1.363916    2.145706   -1.856334
H     -4.001497    0.642747   -2.204287
H     -2.428323    0.435613   -3.056819
H     -3.181977   -1.778979   -3.335510
H     -2.363067   -3.976950   -4.056183
H     -0.011109   -4.306390   -0.481287
H     -0.777221   -2.096328    0.247507
H     -2.497133   -0.825278    1.018966
H     -4.382730    1.192794    0.431291
H     -3.157984    1.389789    1.712188
H      1.291350    0.150692    1.679716
H      2.290208   -2.049475    1.226193
H      2.108775   -1.283817   -2.999466
H      1.107848    0.923190   -2.566062
