49

C      5.023470    5.864977    2.073757
O      3.995195    5.112568    1.441314
C      4.245043    4.233631    0.381595
O      5.421905    4.083649   -0.049613
C      3.127745    3.481437   -0.231422
C      1.817559    3.644829    0.243897
C      0.759668    2.935877   -0.331621
C      0.983988    2.043628   -1.396794
C     -0.162587    1.296052   -1.987977
O     -1.332914    1.541582   -1.585897
C      0.011048    0.213067   -3.022746
C      0.524049   -1.091404   -2.395738
N     -0.359367   -1.534888   -1.294167
C     -1.488474   -2.335233   -1.803720
C     -2.486347   -2.587367   -0.671421
C     -1.806292   -3.064219    0.594272
C     -2.632338   -3.619970    1.695305
C     -2.492800   -3.135138    3.009798
C     -3.278119   -3.655037    4.043134
C     -4.208604   -4.662574    3.777311
F     -4.968548   -5.166009    4.780898
C     -4.354522   -5.152150    2.476952
C     -3.572290   -4.634736    1.439681
C     -0.488563   -2.866260    0.777774
C      0.401963   -2.329930   -0.310630
C      2.300327    1.885108   -1.872450
C      3.357725    2.594637   -1.295867
H      5.776344    5.180606    2.519032
H      5.514071    6.533946    1.335352
H      4.578928    6.483884    2.879860
H      1.606536    4.320848    1.063007
H     -0.236985    3.085763    0.064339
H     -0.959626    0.027179   -3.529290
H      0.705500    0.548850   -3.820393
H      1.556133   -0.903974   -2.023837
H      0.610633   -1.873678   -3.183822
H     -1.132812   -3.308501   -2.214455
H     -2.020523   -1.795444   -2.615727
H     -3.019612   -1.639194   -0.443311
H     -3.237227   -3.325641   -1.020590
H     -1.787227   -2.344545    3.233426
H     -3.166218   -3.273437    5.049872
H     -5.071575   -5.936608    2.271636
H     -3.688264   -5.044735    0.445053
H     -0.013628   -3.198869    1.693383
H      0.916002   -3.184814   -0.805528
H      1.172626   -1.687079    0.167820
H      2.528345    1.217756   -2.690464
H      4.357199    2.447695   -1.686071
