43

O     -3.703096    0.449429    2.057193
C     -2.730432   -0.303356    2.337600
C     -2.698225   -1.673207    1.711799
C     -1.679273   -1.768992    0.569357
N     -2.083688   -0.896381   -0.560124
C     -2.056135   -1.585690   -1.864424
C     -0.625328   -1.960496   -2.279447
C      0.356673   -0.830080   -2.067688
C      1.693964   -0.896017   -2.720170
C      2.317690    0.271601   -3.204804
C      3.567095    0.203006   -3.828247
C      4.208518   -1.028080   -3.979627
F      5.419617   -1.092291   -4.585504
C      3.598971   -2.193863   -3.511015
C      2.348914   -2.131570   -2.887742
C      0.063215    0.176848   -1.225542
C     -1.306451    0.359236   -0.623806
C     -1.649353    0.201617    3.230950
C     -1.657672    1.548696    3.644699
C     -0.646039    2.049189    4.472054
Cl    -0.679642    3.733401    4.966592
C      0.386163    1.208724    4.900429
F      1.372868    1.685329    5.700399
C      0.405303   -0.128705    4.501442
C     -0.602226   -0.632137    3.674027
H     -2.475189   -2.437502    2.485240
H     -3.705967   -1.922547    1.311959
H     -0.657676   -1.524327    0.935923
H     -1.649072   -2.838765    0.264227
H     -2.498962   -0.921854   -2.639783
H     -2.690524   -2.498395   -1.829497
H     -0.293983   -2.839395   -1.687525
H     -0.628187   -2.255398   -3.350895
H      1.830450    1.234822   -3.122253
H      4.035321    1.105995   -4.198436
H      4.094618   -3.148637   -3.629870
H      1.904300   -3.049603   -2.527088
H      0.794158    0.950367   -1.024614
H     -1.200715    0.811345    0.384248
H     -1.862624    1.095997   -1.241866
H     -2.444136    2.218745    3.320389
H      1.204309   -0.779402    4.833135
H     -0.549304   -1.672571    3.388511
