43

O      1.116547   -3.944673   -3.942172
C      1.282945   -3.476480   -2.783046
C      1.031408   -4.382366   -1.601171
C     -0.311503   -4.062632   -0.931193
N     -0.287221   -2.689184   -0.386343
C     -1.566028   -1.984434   -0.562289
C     -1.350353   -0.496577   -0.272317
C     -0.559376   -0.260472    0.999772
C     -0.503622    1.109653    1.575186
C     -0.438529    2.236401    0.733292
C     -0.389945    3.524345    1.275224
C     -0.411217    3.704180    2.660160
F     -0.365072    4.954387    3.182665
C     -0.482624    2.595308    3.506349
C     -0.529911    1.305006    2.970017
C      0.168042   -1.253214    1.547590
C      0.105663   -2.665647    1.034357
C      1.624698   -2.038169   -2.624810
C      1.201791   -1.111813   -3.596178
C      1.451559    0.254074   -3.431154
C      2.130956    0.710788   -2.300184
C      2.573815   -0.198862   -1.338506
C      2.331224   -1.566183   -1.500585
H      1.006706   -5.438067   -1.949561
H      1.858488   -4.316767   -0.866217
H     -1.111433   -4.188934   -1.695625
H     -0.516360   -4.814577   -0.135845
H     -1.924122   -2.076666   -1.611697
H     -2.347073   -2.402524    0.113095
H     -0.790742   -0.055323   -1.124915
H     -2.337209    0.009324   -0.201469
H     -0.407539    2.125239   -0.342525
H     -0.333649    4.383415    0.619045
H     -0.505634    2.734280    4.579590
H     -0.604730    0.461625    3.644911
H      0.776492   -1.067140    2.424199
H      1.109920   -3.125037    1.155862
H     -0.618822   -3.238760    1.655364
H      0.653293   -1.441036   -4.470007
H      1.109483    0.959923   -4.176915
H      2.316093    1.769165   -2.170024
H      3.104155    0.155719   -0.464132
H      2.694220   -2.244013   -0.741758
