52

O      2.854185    1.899540   -2.196032
C      2.109239    1.855602   -1.179497
C      2.529889    1.033006    0.014724
C      3.100897   -0.351292   -0.356684
N      2.090168   -1.425986   -0.450100
C      1.108641   -1.353183   -1.547146
C     -0.244668   -0.814648   -1.079995
N     -0.678059   -1.523718    0.123239
C     -2.073536   -1.826703    0.310465
C     -2.762043   -2.589140   -0.644633
C     -4.117180   -2.885268   -0.472877
C     -4.810687   -2.424161    0.659310
N     -6.206633   -2.729354    0.832580
O     -6.880749   -3.477111   -0.105664
O     -6.828219   -2.320959    1.835526
C     -4.117863   -1.661392    1.616862
C     -2.762523   -1.366772    1.444289
C      0.247806   -1.551400    1.256768
C      1.629119   -2.045973    0.809729
C      0.911064    2.731278   -1.115231
C      0.711807    3.497886    0.045820
C     -0.377034    4.359132    0.158440
C     -1.294822    4.476071   -0.882265
F     -2.344363    5.326101   -0.739652
C     -1.135031    3.716828   -2.053093
C     -2.073391    3.819816   -3.094999
C     -1.936078    3.047172   -4.247577
C     -0.868287    2.161305   -4.372740
C      0.077084    2.047986   -3.351715
C     -0.027730    2.830734   -2.180309
H      3.320925    1.606519    0.543900
H      1.690004    0.922817    0.725297
H      3.671331   -0.301708   -1.308897
H      3.856138   -0.632659    0.409365
H      0.958579   -2.377640   -1.950868
H      1.493937   -0.732478   -2.383243
H     -0.174383    0.263928   -0.849608
H     -0.980564   -0.929857   -1.904537
H     -2.244333   -2.965884   -1.517735
H     -4.621105   -3.477342   -1.225748
H     -4.624487   -1.290081    2.498454
H     -2.254766   -0.767194    2.188933
H      0.318402   -0.539787    1.704921
H     -0.128669   -2.240370    2.044704
H      1.572183   -3.144695    0.652051
H      2.359076   -1.878282    1.631161
H      1.416089    3.446220    0.867095
H     -0.506396    4.945028    1.059525
H     -2.919241    4.492154   -3.018217
H     -2.665277    3.129342   -5.043286
H     -0.774386    1.554570   -5.264296
H      0.871806    1.331123   -3.488585
