48

C      2.098497    2.797279   -4.504216
O      1.127995    2.555585   -3.491031
C     -0.228721    2.904236   -3.587196
C     -1.089866    2.602574   -2.511092
N     -0.603254    1.917489   -1.343323
C     -0.644575    2.571174   -0.033398
C     -1.036539    1.553769    1.040962
N     -0.155610    0.368254    0.974734
C     -0.473141   -0.573709    2.070547
C      0.772111   -1.381108    2.458125
C      0.457333   -2.353544    3.563512
O      0.684825   -1.992004    4.750484
C     -0.136182   -3.696857    3.308177
C     -0.313140   -4.597831    4.377559
C     -0.868384   -5.862361    4.160385
C     -1.256728   -6.246333    2.875932
F     -1.796010   -7.472806    2.667994
C     -1.090371   -5.365582    1.805839
C     -0.535088   -4.099619    2.015992
C     -0.298815   -0.292567   -0.342080
C      0.131699    0.656220   -1.461531
C     -2.442172    2.972908   -2.577171
C     -2.942655    3.626720   -3.704110
C     -2.097876    3.917605   -4.775283
C     -0.748506    3.560496   -4.721450
H      2.187368    3.887595   -4.695736
H      3.082022    2.415724   -4.161465
H      1.816437    2.265485   -5.437487
H      0.360241    2.986900    0.197006
H     -1.374886    3.409330   -0.027381
H     -2.103206    1.260715    0.906829
H     -0.934127    2.052638    2.030039
H     -1.311543   -1.250831    1.789793
H     -0.799841   -0.024028    2.982960
H      1.196909   -1.921803    1.588773
H      1.559713   -0.676346    2.804590
H     -0.019255   -4.328107    5.384203
H     -0.997134   -6.544570    4.990903
H     -1.393965   -5.662233    0.809997
H     -0.430834   -3.445109    1.162590
H     -1.353742   -0.607519   -0.514705
H      0.341629   -1.197972   -0.397089
H      1.222450    0.854465   -1.380610
H     -0.072016    0.175058   -2.443424
H     -3.110310    2.741151   -1.757190
H     -3.987820    3.904577   -3.748697
H     -2.488761    4.423179   -5.648908
H     -0.116940    3.804531   -5.564503
