60

O      1.902002    3.683640    0.611642
C      2.370868    2.576513    0.226530
C      3.030796    1.674840    1.241681
C      2.088110    1.381923    2.413730
N      0.901255    0.642494    1.927478
C     -0.342667    1.155360    2.532229
C     -1.543898    0.419522    1.937376
N     -1.416183   -1.028320    2.205770
C     -2.616361   -1.831999    1.839859
C     -2.998435   -1.666804    0.367679
C     -2.530200   -2.595254   -0.580134
C     -2.839105   -2.444903   -1.934721
C     -3.617535   -1.366590   -2.359961
C     -4.090096   -0.437145   -1.431169
C     -3.783320   -0.582518   -0.075698
C     -3.779605   -1.596920    2.805597
C     -3.554643   -1.103641    4.108550
C     -4.616037   -0.940986    5.003787
C     -5.912364   -1.293534    4.626186
C     -6.145708   -1.831871    3.361149
C     -5.086003   -2.004119    2.465689
C     -0.176465   -1.554923    1.601718
C      1.034618   -0.808334    2.170350
C      2.248048    2.201916   -1.202604
C      3.235997    1.414208   -1.841467
C      3.065421    1.115698   -3.191480
C      1.996204    1.558664   -3.898582
C      1.004425    2.339959   -3.317147
C      1.137605    2.667729   -1.955435
O      2.091372    1.118435   -5.206848
C      3.301484    0.358687   -5.330600
O      3.888839    0.376904   -4.019783
H      3.947589    2.174917    1.623528
H      3.335560    0.707549    0.787754
H      2.643806    0.809245    3.191745
H      1.810154    2.350769    2.889922
H     -0.454485    2.238576    2.303062
H     -0.328440    1.024630    3.638682
H     -1.570953    0.622230    0.843211
H     -2.470507    0.824647    2.398396
H     -2.368438   -2.905301    2.000890
H     -1.915884   -3.432055   -0.271350
H     -2.470944   -3.162090   -2.656834
H     -3.851903   -1.250271   -3.410017
H     -4.690390    0.400113   -1.763889
H     -4.154383    0.151196    0.627052
H     -2.557881   -0.844222    4.443225
H     -4.432979   -0.545566    5.992773
H     -6.730938   -1.164856    5.321608
H     -7.148556   -2.124093    3.074877
H     -5.293418   -2.454908    1.503624
H     -0.062343   -2.635696    1.838833
H     -0.191534   -1.434636    0.494880
H      1.951542   -1.191497    1.672458
H      1.113005   -1.019265    3.261028
H      4.121522    1.068450   -1.322429
H      0.160722    2.688681   -3.895733
H      0.372539    3.273635   -1.485388
H      3.070723   -0.684877   -5.635554
H      3.983480    0.843569   -6.061871
