47

C     -3.051831   -4.041398   -4.963373
O     -3.664430   -3.539865   -3.779886
C     -3.320344   -2.328069   -3.162566
C     -4.003514   -1.955766   -2.001572
C     -3.698943   -0.758935   -1.347106
C     -2.695861    0.096025   -1.844997
C     -2.342231    1.374083   -1.163832
O     -1.481138    2.134550   -1.685183
C     -2.937871    1.788535    0.156985
C     -2.325870    1.017997    1.332418
N     -0.877841    1.316327    1.438201
C     -0.057045    0.162367    1.027712
C      1.406606    0.592722    0.913082
C      1.865053    1.389451    2.116550
C      3.314712    1.648761    2.303669
C      3.784707    2.956569    2.530058
C      5.151516    3.198511    2.697705
C      6.062454    2.140821    2.642201
F      7.387393    2.377452    2.805696
C      5.607209    0.838891    2.419430
C      4.241269    0.591714    2.250109
C      0.968182    1.969831    2.934493
C     -0.510955    1.721319    2.809118
C     -2.011807   -0.283465   -3.015627
C     -2.318665   -1.480936   -3.667923
H     -3.208106   -3.332727   -5.803965
H     -1.965891   -4.199860   -4.793478
H     -3.515646   -5.013725   -5.227585
H     -4.777236   -2.599638   -1.602549
H     -4.255427   -0.516299   -0.453646
H     -2.764253    2.875735    0.315889
H     -4.038966    1.649788    0.141268
H     -2.878997    1.330487    2.247743
H     -2.522965   -0.072183    1.220226
H     -0.384404   -0.218710    0.035967
H     -0.149516   -0.670455    1.762588
H      1.524842    1.228910    0.009362
H      2.030979   -0.313944    0.775962
H      3.095933    3.791711    2.562229
H      5.503679    4.207842    2.867743
H      6.312244    0.018390    2.381699
H      3.910925   -0.427724    2.100098
H      1.307036    2.549647    3.785062
H     -0.803994    0.937600    3.543805
H     -1.040611    2.663350    3.069820
H     -1.232161    0.344013   -3.429157
H     -1.769924   -1.738331   -4.563563
