43

O      2.681671    1.484177   -3.151622
C      2.813852    1.631976   -1.905477
C      3.117874    0.421917   -1.056794
C      2.222851   -0.776424   -1.414367
N      0.782857   -0.419555   -1.452507
C      0.216343   -0.027594   -0.144057
C      0.213151   -1.190149    0.859413
C     -0.241879   -2.495286    0.241015
C     -0.590533   -3.637783    1.130376
C     -1.653148   -4.504803    0.805047
C     -1.985224   -5.568996    1.648817
C     -1.267311   -5.779176    2.828009
F     -1.591810   -6.811346    3.645015
C     -0.217519   -4.922887    3.167060
C      0.118555   -3.856438    2.327480
C     -0.254161   -2.650342   -1.096096
C     -0.027199   -1.501835   -2.045805
C      2.683305    2.988384   -1.320519
C      1.869908    3.946331   -1.953162
C      1.735216    5.230244   -1.414878
F      0.941236    6.141051   -2.030598
C      2.417261    5.574015   -0.244451
F      2.289012    6.819097    0.277539
C      3.237946    4.635492    0.385464
C      3.374800    3.350384   -0.148477
H      4.180585    0.138688   -1.213730
H      2.999020    0.644307    0.022931
H      2.543545   -1.136333   -2.417522
H      2.417325   -1.609230   -0.705231
H     -0.830698    0.319113   -0.292454
H      0.759735    0.841282    0.280891
H      1.237247   -1.314127    1.269532
H     -0.457273   -0.929691    1.706775
H     -2.240209   -4.349509   -0.091398
H     -2.804229   -6.227646    1.389328
H      0.338311   -5.084477    4.081860
H      0.941616   -3.214183    2.611518
H     -0.520399   -3.605052   -1.532658
H      0.441418   -1.880332   -2.980364
H     -1.017892   -1.092559   -2.339178
H      1.328384    3.696685   -2.857470
H      3.774986    4.904946    1.285935
H      4.039723    2.653909    0.344822
