52

O     -5.619293    0.464146    0.155733
C     -4.494374   -0.089093    0.315466
C     -3.718464    0.206347    1.574258
C     -3.089839    1.609078    1.539610
N     -2.426823    1.893495    0.254542
C     -1.121619    1.222965    0.096043
C      0.018090    1.996707    0.797836
C      1.332644    1.202641    0.702023
N      1.444085    0.506979   -0.589532
C      2.024130   -0.808956   -0.641067
C      3.417783   -1.012336   -0.480199
C      4.376504    0.146986   -0.294510
F      5.666115   -0.212760   -0.649407
F      4.377888    0.533928    1.032719
F      4.008272    1.220363   -1.086708
C      3.912827   -2.332178   -0.449518
C      3.060421   -3.434842   -0.642642
N      3.579613   -4.778001   -0.629615
O      2.753984   -5.847599   -0.896816
O      4.780533   -4.996955   -0.359639
C      1.690936   -3.208775   -0.844241
C      1.179667   -1.912569   -0.830596
C      0.683018    1.011096   -1.737892
C     -0.822001    1.055570   -1.415288
C     -3.931913   -0.925575   -0.775420
C     -3.146463   -2.065017   -0.498094
C     -2.609748   -2.826633   -1.543878
C     -2.857127   -2.468285   -2.873213
C     -3.655609   -1.355050   -3.160879
C     -4.193861   -0.588070   -2.119280
H     -4.410149    0.147408    2.442749
H     -2.927110   -0.545994    1.759429
H     -2.387448    1.725106    2.392308
H     -3.903402    2.353283    1.690968
H     -2.303088    2.930295    0.161342
H     -1.159017    0.201015    0.535129
H      0.148613    2.991114    0.314778
H     -0.217006    2.171131    1.868481
H      1.356215    0.460022    1.530733
H      2.189807    1.895715    0.830549
H      4.968733   -2.504807   -0.281008
H      1.009082   -4.036932   -0.992583
H      0.114959   -1.765861   -0.956399
H      0.862087    0.387810   -2.642650
H      1.037748    2.039749   -1.971574
H     -1.298718    0.117659   -1.773408
H     -1.276047    1.891551   -1.993525
H     -2.963809   -2.387456    0.519128
H     -2.007734   -3.701068   -1.322173
H     -2.441797   -3.060782   -3.680983
H     -3.858358   -1.086295   -4.193421
H     -4.800081    0.278476   -2.363062
