52

O     -3.306086   -1.953763    1.064555
C     -2.057929   -1.837792    1.193337
C     -1.468628   -0.496433    1.531996
C     -1.312703    0.369508    0.275850
N     -0.423056   -0.286712   -0.710958
C      1.019859   -0.077012   -0.413702
C      1.692866    0.980812   -1.310061
N      0.717436    1.995444   -1.720246
C      0.930962    3.394423   -1.448624
C      0.648824    4.359904   -2.427558
C      0.838944    5.718616   -2.159381
C      1.308253    6.140025   -0.902628
N      1.503436    7.537974   -0.621591
O      1.965530    7.945585    0.609497
O      1.256877    8.402957   -1.487677
C      1.581351    5.172462    0.078951
C      1.391517    3.814280   -0.190447
C     -0.512117    1.553546   -2.388027
C     -0.777722    0.066120   -2.102232
C     -1.185587   -2.988577    0.881665
C     -1.188364   -3.476565   -0.433024
C     -0.331939   -4.509024   -0.810873
C      0.537494   -5.080779    0.117650
F      1.364343   -6.080331   -0.284377
C      0.544000   -4.630792    1.449137
C      1.404851   -5.216336    2.394014
C      1.394139   -4.784261    3.721050
C      0.520706   -3.774736    4.122820
C     -0.341205   -3.180519    3.198655
C     -0.330823   -3.581747    1.845817
H     -2.137956    0.024092    2.250713
H     -0.484861   -0.618843    2.029478
H     -0.919177    1.371308    0.560960
H     -2.329764    0.532128   -0.147836
H      1.179255    0.211929    0.648633
H      1.548691   -1.044707   -0.548860
H      2.561896    1.431251   -0.785434
H      2.092211    0.486524   -2.222048
H      0.291187    4.061914   -3.404353
H      0.617575    6.439839   -2.935540
H      1.935470    5.464942    1.059010
H      1.584265    3.091871    0.592486
H     -1.372742    2.147862   -2.010219
H     -0.426667    1.716021   -3.483451
H     -1.843577   -0.177428   -2.306640
H     -0.175624   -0.557465   -2.799534
H     -1.838005   -3.033626   -1.178476
H     -0.336610   -4.862006   -1.834249
H      2.084244   -6.011132    2.110706
H      2.059457   -5.239989    4.443508
H      0.507062   -3.453801    5.156666
H     -1.020835   -2.418194    3.555550
