53

C      0.805583   -2.379065    1.427574
O      0.537074   -1.785868    0.162255
C      1.159405   -2.152476   -1.042926
C      0.809067   -1.470344   -2.226007
C     -0.198129   -0.393292   -2.198550
C      0.207380    0.882450   -2.279003
C     -0.759598    2.034162   -2.192285
N     -2.001432    1.680993   -1.468823
C     -1.787647    1.539616   -0.008888
C     -1.836540    2.903568    0.690787
C     -1.585371    2.747942    2.165948
O     -2.454463    3.145473    2.988078
C     -0.327008    2.142625    2.663011
C      0.892342    2.699902    2.246074
C      2.105533    2.170698    2.682103
C      2.129370    1.073327    3.540689
F      3.328821    0.581664    3.946095
C      0.927169    0.483401    3.965478
C      0.948248   -0.636426    4.815280
C     -0.243249   -1.245063    5.209881
C     -1.465500   -0.750540    4.758114
C     -1.507936    0.364156    3.918044
C     -0.317404    1.010499    3.520284
C     -2.586068    0.459818   -2.060349
C     -1.642671   -0.749850   -1.932473
C      1.441680   -1.794734   -3.435728
C      2.404562   -2.804685   -3.477258
C      2.746982   -3.492855   -2.312217
C      2.131995   -3.170491   -1.099462
H      0.592437   -3.468372    1.392931
H      1.863542   -2.202375    1.715196
H      0.146514   -1.915439    2.188947
H      1.256083    1.108179   -2.434853
H     -1.017451    2.354529   -3.224685
H     -0.253484    2.898067   -1.714364
H     -2.588349    0.910062    0.442365
H     -0.818566    1.036089    0.205595
H     -2.837267    3.358969    0.524865
H     -1.080564    3.594682    0.268019
H      0.907788    3.561102    1.590151
H      3.035001    2.617979    2.353307
H      1.885057   -1.049527    5.168675
H     -0.218247   -2.110386    5.859727
H     -2.385681   -1.235862    5.056647
H     -2.476623    0.699541    3.574851
H     -3.561749    0.228864   -1.579234
H     -2.803570    0.639980   -3.136762
H     -1.963843   -1.539217   -2.645558
H     -1.732819   -1.167163   -0.907654
H      1.184324   -1.267366   -4.346310
H      2.886783   -3.053612   -4.413859
H      3.494344   -4.275260   -2.348027
H      2.424212   -3.713710   -0.211529
