57

O      0.534827    1.743408   -4.014165
C     -0.360690    0.858034   -4.007404
C     -1.791814    1.272904   -3.770865
C     -1.930989    2.059866   -2.463383
N     -1.476277    1.231925   -1.325164
C     -0.751309    2.044785   -0.324724
C     -0.419263    1.221227    0.934246
N     -0.645252   -0.217010    0.678005
C     -0.100786   -1.134715    1.716591
C     -0.549107   -0.757140    3.130604
C     -1.649520   -1.415241    3.711703
C     -2.071740   -1.086894    5.003733
C     -1.406622   -0.096701    5.729048
C     -0.316821    0.568985    5.163733
C      0.114348    0.239874    3.875602
C      1.413042   -1.301397    1.591046
C      2.091355   -0.958451    0.401308
C      3.466509   -1.177820    0.279398
C      4.180909   -1.765563    1.326217
C      3.517794   -2.153137    2.490974
C      2.141715   -1.941668    2.616489
C     -2.066041   -0.478663    0.368625
C     -2.597939    0.511090   -0.689731
C      0.020266   -0.555567   -4.225157
C     -0.824305   -1.435338   -4.926763
C     -0.442606   -2.763056   -5.139578
C      0.784346   -3.226436   -4.656580
Br     1.305766   -5.038304   -4.957102
C      1.633194   -2.358916   -3.963185
C      1.257473   -1.028467   -3.752570
H     -2.128108    1.906754   -4.618622
H     -2.461460    0.389415   -3.724148
H     -1.327252    2.992201   -2.558039
H     -2.989826    2.386160   -2.336565
H     -1.352463    2.938798   -0.034461
H      0.202325    2.403344   -0.775860
H     -1.064313    1.569831    1.770983
H      0.641329    1.404866    1.209945
H     -0.486926   -2.158298    1.504730
H     -2.178167   -2.187762    3.165529
H     -2.910745   -1.610725    5.446517
H     -1.733028    0.154857    6.730056
H      0.198788    1.335704    5.727018
H      0.970449    0.755963    3.464800
H      1.565983   -0.528360   -0.441820
H      3.978019   -0.896841   -0.631307
H      5.245600   -1.934624    1.228793
H      4.068092   -2.629839    3.292991
H      1.646722   -2.279124    3.517967
H     -2.166446   -1.512694   -0.029625
H     -2.689311   -0.401807    1.286351
H     -3.294595    1.235752   -0.204481
H     -3.178282   -0.055301   -1.454189
H     -1.766205   -1.094268   -5.335916
H     -1.098448   -3.427828   -5.687942
H      2.585671   -2.712989   -3.589888
H      1.927373   -0.373457   -3.208731
