54

O     -2.153818    0.610181   -3.793445
C     -1.064642    0.419301   -3.188918
C     -0.487954    1.524240   -2.346434
C     -0.253434    1.056500   -0.905985
N      0.138419    2.196408   -0.062461
C      0.270104    1.804626    1.356741
C      1.279305    2.734698    2.087046
C      0.973839    2.943159    3.583304
N      0.239497    1.802843    4.139720
C      0.730443    1.142692    5.312422
C      1.723795    0.162246    5.184100
C      2.220954   -0.491597    6.315040
C      1.730347   -0.164745    7.585178
C      2.248935   -0.832407    8.750166
N      2.666809   -1.368088    9.686333
C      0.738799    0.817262    7.719475
C      0.237403    1.473164    6.587272
Br    -1.103046    2.823478    6.814991
C     -0.974435    1.301821    3.484691
C     -1.102216    1.850759    2.057547
C     -0.367485   -0.880443   -3.333047
C      0.963810   -0.880329   -3.783027
C      1.655926   -2.076567   -3.964778
C      1.036342   -3.297748   -3.700986
F      1.737292   -4.444469   -3.892534
C     -0.289702   -3.331954   -3.234728
C     -1.003433   -2.116492   -3.038776
C     -2.317509   -2.178187   -2.523878
C     -2.916525   -3.409348   -2.245536
C     -2.218444   -4.595975   -2.461514
C     -0.911098   -4.561414   -2.949828
H      0.468377    1.873031   -2.790754
H     -1.191679    2.386059   -2.336871
H     -1.189874    0.596798   -0.526881
H      0.548205    0.283793   -0.897746
H      1.074202    2.513889   -0.413043
H      0.666973    0.764401    1.433149
H      2.298758    2.303616    1.980686
H      1.297065    3.736894    1.603464
H      0.349564    3.855615    3.706814
H      1.923096    3.114722    4.138017
H      2.109221   -0.092399    4.205799
H      2.988022   -1.249616    6.198622
H      0.357727    1.074883    8.700991
H     -1.868505    1.584474    4.079402
H     -0.928984    0.191472    3.432116
H     -1.855053    1.243773    1.513974
H     -1.473238    2.899221    2.088026
H      1.465657    0.051406   -4.015450
H      2.679431   -2.056353   -4.320826
H     -2.887824   -1.283294   -2.320478
H     -3.925490   -3.441989   -1.856833
H     -2.688794   -5.546639   -2.242253
H     -0.385843   -5.497737   -3.097927
