57

O      3.799019   -3.207520    2.138082
C      2.576977   -3.064669    1.860859
C      2.098555   -3.525397    0.508761
C      1.852231   -2.324648   -0.414599
N      1.182041   -2.751452   -1.667667
C      1.516074   -1.888270   -2.825515
C      0.590393   -0.658593   -2.956466
N     -0.073479   -0.371829   -1.667179
C     -0.804883    0.925301   -1.692794
C     -1.524748    1.196176   -0.380115
C     -2.858066    1.643418   -0.388421
C     -3.517503    1.925136    0.812028
C     -2.851023    1.774940    2.030382
C     -1.523031    1.344040    2.051113
C     -0.860722    1.055191    0.854904
C      0.122845    2.101553   -1.954012
C     -0.324917    3.182727   -2.734135
C      0.500330    4.290521   -2.949078
C      1.775092    4.336077   -2.379784
C      2.225745    3.275659   -1.590473
C      1.404308    2.166281   -1.371047
C     -0.978063   -1.501239   -1.337913
C     -0.284567   -2.872133   -1.519391
C      1.670817   -2.412880    2.850463
C      0.277953   -2.331655    2.639502
C     -0.547738   -1.698764    3.572390
C     -0.000870   -1.137256    4.727960
Cl    -1.040443   -0.332919    5.889613
C      1.375267   -1.214062    4.954077
C      2.205919   -1.847869    4.025071
H      1.190509   -4.147805    0.631926
H      2.866528   -4.181427    0.043065
H      2.845878   -1.871700   -0.626845
H      1.263609   -1.549142    0.117923
H      1.429106   -2.495351   -3.752373
H      2.577876   -1.559733   -2.788355
H      1.210776    0.196828   -3.296282
H     -0.171397   -0.843489   -3.748620
H     -1.556838    0.880863   -2.515784
H     -3.387462    1.776262   -1.323468
H     -4.544895    2.265132    0.797136
H     -3.362172    1.996619    2.958428
H     -1.005355    1.235639    2.995002
H      0.165027    0.713979    0.894151
H     -1.314640    3.169430   -3.173509
H      0.149437    5.116358   -3.554326
H      2.412015    5.194937   -2.546968
H      3.212090    3.313885   -1.146532
H      1.773522    1.354540   -0.757767
H     -1.897285   -1.468808   -1.966253
H     -1.295525   -1.426841   -0.276324
H     -0.692846   -3.363859   -2.430025
H     -0.544727   -3.543827   -0.675048
H     -0.185087   -2.748852    1.757457
H     -1.613631   -1.639616    3.391420
H      1.804053   -0.779976    5.848417
H      3.269589   -1.886598    4.223759
