44

O      0.909887    2.251795    0.215385
C      0.736944    2.019978   -1.012600
C     -0.676395    2.021046   -1.535543
C     -1.219135    0.601103   -1.733694
N     -1.279898   -0.107239   -0.433198
C     -0.243447   -1.151078   -0.336626
C     -0.182349   -1.665448    1.101315
C     -1.552658   -2.027835    1.632428
C     -1.660768   -2.889246    2.842065
C     -2.700992   -3.832122    2.965456
C     -2.790263   -4.646391    4.098515
C     -1.842942   -4.535030    5.118522
F     -1.931435   -5.326224    6.215966
C     -0.801797   -3.611166    5.005164
C     -0.707003   -2.794824    3.873933
C     -2.657241   -1.498482    1.072484
C     -2.610292   -0.705755   -0.207760
C      1.916882    1.716677   -1.871726
C      3.197369    1.622322   -1.291157
C      4.317181    1.330947   -2.075300
C      4.178615    1.129098   -3.452932
O      5.287498    0.837609   -4.244105
C      2.915449    1.220610   -4.041381
C      1.792192    1.511952   -3.261449
H     -1.335794    2.556539   -0.817328
H     -0.731962    2.587487   -2.488425
H     -0.600291    0.054495   -2.480794
H     -2.228251    0.701992   -2.195139
H     -0.462360   -1.993606   -1.032577
H      0.754871   -0.738824   -0.599761
H      0.485646   -2.552895    1.141294
H      0.251101   -0.868938    1.743963
H     -3.433784   -3.954836    2.178061
H     -3.592523   -5.368314    4.181815
H     -0.066477   -3.525455    5.794913
H      0.104638   -2.081549    3.815841
H     -3.635255   -1.710172    1.486730
H     -3.370855    0.102263   -0.140728
H     -2.886411   -1.379297   -1.050335
H      3.336094    1.769653   -0.227439
H      5.292244    1.261387   -1.610000
H      6.216862    0.764418   -3.846830
H      2.803062    1.065300   -5.106987
H      0.834759    1.573168   -3.757810
