63

C     -0.708117   -9.493628   -3.136464
O     -0.255659   -8.149136   -3.110724
C      0.234325   -7.533285   -1.952575
O      0.263586   -8.168928   -0.863785
C      0.701599   -6.128136   -2.003470
C      0.579854   -5.388375   -3.187210
C      0.983438   -4.051201   -3.231822
C      1.517836   -3.418479   -2.090911
C      1.900724   -1.977945   -2.156047
O      1.784851   -1.357641   -3.249707
C      2.362810   -1.196511   -0.952696
C      1.170048   -0.810050   -0.062967
N      1.607309    0.034600    1.075579
C      0.611325    0.026719    2.174208
C     -0.449122    1.120636    1.977723
N      0.134715    2.492662    1.984051
C     -0.638225    3.426446    1.111983
C     -2.130963    3.382036    1.403734
C     -3.050893    3.278797    0.343439
C     -4.424842    3.241227    0.600779
C     -4.895317    3.321850    1.915642
C     -3.991158    3.450746    2.973563
C     -2.616485    3.485572    2.721985
C     -0.185700    4.869541    1.265586
C     -0.188568    5.720277    0.147056
C      0.205316    7.057351    0.271063
C      0.578133    7.565107    1.516287
C      0.561862    6.736684    2.640252
C      0.186034    5.394962    2.518172
C      1.588940    2.489862    1.662202
C      1.957763    1.410948    0.628208
C      1.650736   -4.168441   -0.908801
C      1.247640   -5.505537   -0.867160
H     -1.073614   -9.733736   -4.156774
H     -1.542716   -9.631372   -2.417609
H      0.127260  -10.179680   -2.877330
H      0.164573   -5.840491   -4.080961
H      0.860413   -3.509770   -4.161342
H      3.108638   -1.776932   -0.369970
H      2.882601   -0.278586   -1.304622
H      0.388423   -0.292039   -0.667538
H      0.713687   -1.753288    0.308507
H      1.137768    0.194478    3.139019
H      0.110812   -0.961627    2.277221
H     -0.986558    0.909952    1.022355
H     -1.190346    1.040748    2.804789
H     -0.472505    3.117886    0.053016
H     -2.708198    3.221311   -0.684335
H     -5.124861    3.146353   -0.221473
H     -5.960206    3.288207    2.115755
H     -4.357576    3.520830    3.990211
H     -1.933597    3.580944    3.556567
H     -0.488165    5.347106   -0.824964
H      0.201685    7.708133   -0.594016
H      0.872945    8.601957    1.609939
H      0.842670    7.132859    3.607755
H      0.176684    4.772534    3.404368
H      2.162595    2.305273    2.596511
H      1.941348    3.474721    1.288636
H      1.459463    1.678080   -0.332595
H      3.054772    1.454682    0.456254
H      2.056490   -3.733960   -0.004676
H      1.361600   -6.051788    0.058146
