52

O     -1.472988   -3.826822   -2.023542
C     -2.298573   -2.878113   -1.909593
C     -2.965799   -2.668952   -0.572909
C     -2.575618   -1.329218    0.090561
N     -1.258898   -1.362851    0.760812
C     -0.120984   -1.028636   -0.127616
C      0.009140    0.499939   -0.317906
C      0.380257    1.199782    0.993728
N      1.572512    0.570848    1.571883
C      2.723908    1.361027    1.916098
C      2.711758    2.252365    3.019516
C      1.491955    2.394904    3.912028
F      0.946835    1.155145    4.191956
F      1.816775    2.993835    5.118461
F      0.545419    3.176501    3.278179
C      3.847677    3.054304    3.257739
C      4.998257    2.946998    2.451556
N      6.157668    3.767404    2.709926
O      7.246737    3.735305    1.859808
O      6.187415    4.532967    3.699960
C      5.000212    2.031875    1.386949
C      3.874701    1.249682    1.123153
C      1.591215   -0.884506    1.754955
C      1.202441   -1.584571    0.447960
C     -2.562111   -1.994671   -3.078841
C     -1.644233   -1.952472   -4.144214
C     -1.864706   -1.116841   -5.245496
Cl    -0.693144   -1.078763   -6.558352
C     -3.015236   -0.317990   -5.298908
F     -3.243503    0.491615   -6.364396
C     -3.940287   -0.357551   -4.253125
C     -3.717212   -1.187315   -3.149700
H     -2.723602   -3.511031    0.108618
H     -4.066379   -2.704388   -0.713167
H     -3.337795   -1.110768    0.871862
H     -2.645881   -0.495920   -0.637174
H     -1.119974   -2.302321    1.203255
H     -0.257606   -1.489126   -1.127368
H     -0.929243    0.938522   -0.715037
H      0.802766    0.702184   -1.069739
H     -0.465024    1.126690    1.714975
H      0.567767    2.277694    0.782960
H      3.840150    3.769500    4.072407
H      5.870415    1.927944    0.751484
H      3.888648    0.562118    0.284263
H      2.602901   -1.229946    2.064459
H      0.877270   -1.161446    2.561259
H      2.014745   -1.435889   -0.295753
H      1.115942   -2.680641    0.622940
H     -0.746130   -2.559470   -4.118868
H     -4.832901    0.256576   -4.295863
H     -4.455474   -1.195846   -2.362206
