24

C      0.067229    0.378045    0.642825
C      0.829495    0.789095    1.864822
O      2.096034    1.206627    1.350261
C      1.855029    1.744373    0.047045
O      2.749812    1.232959   -0.937125
C      2.298615    0.046614   -1.572612
C      0.953919    0.214652   -2.334773
C     -0.103607    1.076517   -1.599868
C     -1.344221    0.326552   -1.141137
O     -2.220814   -0.055060   -1.900074
C     -1.397949    0.135098    0.362518
C      0.392236    1.524388   -0.252380
H      0.555206   -0.574761    0.339424
H      0.330320    1.627330    2.401677
H      0.962025   -0.068702    2.558275
H      2.032527    2.840710    0.098372
H      3.067292   -0.245534   -2.318911
H      2.279674   -0.798433   -0.856283
H      1.171610    0.698775   -3.311775
H      0.544903   -0.793384   -2.563711
H     -0.390018    1.957773   -2.215645
H     -2.051136    0.896136    0.841840
H     -1.700859   -0.898608    0.636639
H     -0.177597    2.437087    0.060911
