24

C     -1.378639    1.495144    1.683346
C     -2.461618    2.315137    1.052432
O     -2.063793    2.406372   -0.317471
C     -1.363583    1.197808   -0.625206
O     -0.125259    1.429591   -1.291241
C      0.981017    1.600988   -0.418541
C      1.263417    0.369221    0.487180
C     -0.002046   -0.313111    1.065342
C     -0.161527   -0.208668    2.573872
O      0.512407   -0.844038    3.368947
C     -1.271210    0.738956    2.987563
C     -1.253415    0.417234    0.661800
H     -0.507989    2.187529    1.707575
H     -3.456844    1.823026    1.138314
H     -2.508624    3.328365    1.505657
H     -1.996829    0.612555   -1.327042
H      1.881440    1.761568   -1.048326
H      0.881894    2.541061    0.159412
H      1.811971   -0.384014   -0.119474
H      1.948832    0.677917    1.306178
H     -0.057696   -1.376594    0.743265
H     -2.203220    0.184708    3.231993
H     -0.957176    1.403804    3.821114
H     -2.123533   -0.285833    0.728643
