24

C     -0.666231   -0.335137    0.399286
C      0.230140    0.369674    1.391479
C      1.536175    0.173097    0.670374
O      2.537794    0.833629    0.894281
C      1.483209   -0.947925   -0.340634
C      1.298665   -0.547508   -1.823210
O      0.062956   -1.076919   -2.313811
C     -0.359708   -2.022303   -1.355647
O     -1.772758   -2.269274   -1.363075
C     -2.594833   -1.303615   -0.695488
C     -2.062761   -0.819133    0.681032
C      0.154968   -1.537735   -0.040313
H     -0.777789    0.412229   -0.430295
H      0.241069   -0.140140    2.378947
H     -0.031528    1.445866    1.486514
H      2.301583   -1.687632   -0.196872
H      2.137142   -0.952309   -2.429446
H      1.291200    0.557906   -1.937755
H      0.139327   -2.990603   -1.587471
H     -2.750281   -0.433532   -1.371068
H     -3.595521   -1.756124   -0.534392
H     -2.690054    0.016370    1.059252
H     -2.066756   -1.647375    1.423363
H      0.204596   -2.341638    0.731302
