24

C      0.465331   -0.138810    0.980781
C      0.698652    1.281007    1.454502
C     -0.422269    1.964204    0.724492
O     -0.840004    3.072719    1.018677
C     -0.954780    1.155702   -0.429774
C     -2.285898    0.438532   -0.203946
O     -2.155824   -0.942148   -0.527224
C     -0.798798   -1.214756   -0.825810
O     -0.362568   -2.375382   -0.102510
C      1.057482   -2.390954    0.099850
C      1.549827   -1.206205    0.993236
C     -0.008046    0.020272   -0.458839
H     -0.364654   -0.533681    1.621040
H      1.681546    1.674462    1.116939
H      0.582456    1.364683    2.556650
H     -0.938615    1.722907   -1.386732
H     -2.611629    0.527987    0.855471
H     -3.071285    0.892935   -0.844313
H     -0.708433   -1.407117   -1.917555
H      1.337040   -3.349692    0.584888
H      1.577461   -2.364609   -0.884393
H      1.718200   -1.551754    2.036283
H      2.504056   -0.798460    0.594258
H      0.837961    0.209946   -1.161575
