31

C      0.353497   -1.491038    1.647791
C      1.644002   -1.620059    2.405131
O      2.556377   -0.749704    1.728911
C      1.783118    0.152506    0.931165
O      1.928381   -0.179508   -0.445747
C      0.948192    0.442692   -1.277879
C      1.091774    1.981420   -1.309701
O      0.285639    2.534262   -2.335023
C      1.060536    2.806077   -3.481936
C     -0.490219   -0.031376   -0.938316
C     -0.837064    0.224513    0.538546
C     -1.773441   -0.801728    1.142254
O     -2.970545   -0.844224    0.907566
C     -1.072381   -1.752742    2.088656
C      0.367696   -0.026106    1.411941
H      0.501380   -2.066887    0.698440
H      2.017759   -2.665546    2.372398
H      1.526827   -1.302188    3.465187
H      2.137802    1.189222    1.117679
H      1.151945    0.086951   -2.310466
H      0.746398    2.411453   -0.347063
H      2.171191    2.254384   -1.395334
H      1.787832    3.623191   -3.280636
H      0.385157    3.147670   -4.292851
H      1.589479    1.896675   -3.843627
H     -1.231213    0.483962   -1.586593
H     -0.562181   -1.117009   -1.169371
H     -1.220636    1.257705    0.687394
H     -1.364830   -2.808132    1.901225
H     -1.244888   -1.460832    3.147184
H      0.239824    0.540501    2.370106
