41

O      2.383871    1.260729   -1.181817
C      1.265547    1.636476   -0.733980
C      0.362694    2.422045   -1.621401
C     -0.702014    3.189317   -1.106691
C     -1.539948    3.907112   -1.965592
C     -1.326753    3.873447   -3.344578
C     -0.272410    3.124012   -3.868472
C      0.569231    2.404888   -3.014947
C      0.907129    1.269689    0.688031
F      0.918948    2.419576    1.457909
F      1.857980    0.409047    1.212609
C     -0.453649    0.617230    0.786451
C     -0.774906   -0.585575    0.262128
C     -2.126059   -1.168447    0.490961
C     -2.773686   -1.890292   -0.530450
C     -4.036978   -2.448766   -0.313986
C     -4.666089   -2.301669    0.923626
C     -4.031535   -1.598671    1.949388
C     -2.768581   -1.037175    1.738793
C      0.204062   -1.366138   -0.524708
C      0.314697   -1.176497   -1.911466
C      1.236748   -1.922849   -2.650815
C      2.043138   -2.869652   -2.012457
C      1.925050   -3.074290   -0.634410
C      1.004566   -2.328451    0.108495
H     -0.888672    3.250185   -0.044495
H     -2.354836    4.492950   -1.560153
H     -1.977354    4.429736   -4.006940
H     -0.107598    3.098064   -4.937915
H      1.373617    1.823044   -3.447697
H     -1.209147    1.167758    1.334226
H     -2.312347   -2.013218   -1.501158
H     -4.528890   -2.996034   -1.107764
H     -5.643522   -2.736066    1.089128
H     -4.515984   -1.493526    2.911582
H     -2.287277   -0.519371    2.558647
H     -0.311612   -0.451377   -2.416034
H      1.324541   -1.768789   -3.718457
H      2.756312   -3.447430   -2.585961
H      2.546258   -3.811288   -0.142190
H      0.919103   -2.494756    1.175367
