48

O      1.305668   -1.281226    1.509565
C      0.250711   -0.631133    2.161237
C     -0.628549    0.132386    1.155134
C      0.074792    1.287199    0.392730
C     -0.918366    2.021484   -0.470501
O     -1.609760    2.954756    0.022632
C     -1.148753    1.575819   -1.870392
C     -2.260339    2.055146   -2.585789
C     -2.488913    1.643100   -3.898014
C     -1.608532    0.758039   -4.515723
C     -0.494885    0.276840   -3.825475
C     -0.249141    0.664296   -2.490792
N      0.927492    0.200858   -1.772560
C      1.921184   -0.714307   -2.361252
C      1.337919   -2.083166   -2.619262
C      1.636309   -2.760878   -3.814309
C      1.122710   -4.040214   -4.048280
C      0.320839   -4.659780   -3.086567
C      0.036378   -4.003259   -1.886737
C      0.548121   -2.724177   -1.649330
C      1.194099    0.796212   -0.494135
N      2.372122    1.243676   -0.174379
C      2.187091    2.076078    0.956558
C      3.178990    2.766633    1.650269
C      2.791686    3.571243    2.735587
C      1.432766    3.669821    3.099586
C      0.452483    2.967024    2.378533
C      0.862697    2.184343    1.296339
H      1.831210   -1.734208    2.218898
H     -0.381728   -1.387731    2.676573
H      0.647721    0.063311    2.933976
H     -1.049946   -0.591451    0.423974
H     -1.489566    0.554509    1.718993
H     -2.957903    2.745393   -2.128060
H     -3.349007    2.015388   -4.439553
H     -1.784388    0.449447   -5.538275
H      0.174418   -0.384115   -4.353856
H      2.787927   -0.847204   -1.677986
H      2.320252   -0.263150   -3.295547
H      2.261510   -2.297579   -4.567435
H      1.349164   -4.552581   -4.974381
H     -0.075247   -5.650430   -3.268644
H     -0.578264   -4.486831   -1.138500
H      0.324121   -2.235239   -0.713333
H      4.218766    2.685707    1.361551
H      3.540244    4.116661    3.295345
H      1.143648    4.285926    3.940970
H     -0.590490    3.024283    2.660799
