48

O      0.725656   -2.016919    2.509967
C      0.126012   -0.912087    1.890210
C     -1.079147   -1.367022    1.052110
C     -1.785985   -0.235890    0.257967
C     -2.144979    0.948660    1.116364
O     -3.212550    0.939331    1.788663
C     -1.182695    2.075530    1.244673
C     -1.350560    3.022032    2.270497
C     -0.422958    4.046753    2.446616
C      0.682106    4.139872    1.605060
C      0.862517    3.217039    0.573325
C     -0.065124    2.172879    0.365200
N      0.074173    1.233663   -0.739900
C      1.223157    1.208654   -1.661772
C      2.309418    0.322841   -1.113255
C      2.172773   -1.074653   -1.179543
C      3.150863   -1.906204   -0.626686
C      4.272032   -1.350728   -0.005239
C      4.417899    0.037405    0.061717
C      3.441151    0.873167   -0.488760
C     -0.956349    0.249036   -0.908838
N     -1.452295   -0.026171   -2.078287
C     -2.667373   -0.710597   -1.843824
C     -3.547438   -1.193862   -2.810373
C     -4.733754   -1.810476   -2.378031
C     -5.014309   -1.925887   -1.001103
C     -4.111689   -1.422493   -0.048831
C     -2.945247   -0.801209   -0.504867
H      1.260259   -2.479039    1.812373
H      0.871704   -0.380644    1.263362
H     -0.212343   -0.214220    2.684135
H     -1.813498   -1.838943    1.741537
H     -0.741281   -2.155341    0.342313
H     -2.191946    2.960077    2.949300
H     -0.557471    4.766977    3.243372
H      1.401858    4.935570    1.748987
H      1.729334    3.345126   -0.051867
H      0.912767    0.814530   -2.653959
H      1.594077    2.229112   -1.881048
H      1.303640   -1.519089   -1.648418
H      3.036724   -2.981346   -0.675462
H      5.027755   -1.995648    0.424081
H      5.287805    0.466391    0.542009
H      3.573213    1.944924   -0.429391
H     -3.324439   -1.095600   -3.864747
H     -5.434921   -2.198542   -3.105313
H     -5.927037   -2.407723   -0.675669
H     -4.314258   -1.519786    1.009591
