13

C      0.111440    0.326467    2.340544
C      0.024076   -0.947226    1.554198
O      0.960904   -1.730775    1.579544
C     -1.186686   -1.259107    0.715462
C     -1.201126   -0.443598   -0.577666
I      0.368039   -1.038452   -1.909253
H      0.978530    0.922719    1.987019
H     -0.811530    0.932043    2.220101
H      0.244962    0.090706    3.417035
H     -1.212850   -2.342880    0.468707
H     -2.102413   -1.029203    1.301522
H     -1.105200    0.640902   -0.357122
H     -2.167366   -0.606825   -1.099910
