13

C     -0.433770   -0.239711   -1.761210
C     -0.532505   -0.831437   -0.381918
O     -1.309974   -0.331522    0.416791
C      0.288696   -2.020550    0.063748
C      1.231333   -2.574244   -1.006893
I      2.319822   -4.243410   -0.234758
H     -1.125730    0.623313   -1.865748
H      0.599850    0.118518   -1.947260
H     -0.708874   -1.000286   -2.520919
H     -0.405877   -2.828518    0.379481
H      0.890974   -1.719864    0.947931
H      1.964204   -1.799817   -1.316979
H      0.654768   -2.919229   -1.890945
