57

C      1.679358    4.298877   -7.233628
O      0.722654    3.281344   -6.962312
C      0.302943    2.910917   -5.673200
C      0.824037    3.508094   -4.508435
C      0.352359    3.124695   -3.246255
C     -0.643386    2.140416   -3.125901
C     -1.171295    1.746069   -1.765841
C     -0.619214    0.390995   -1.296597
C      0.874091    0.393393   -1.088116
O      1.469041    1.450758   -0.739902
C      1.645518   -0.858980   -1.216030
C      2.679144   -0.947490   -2.168723
O      2.953778    0.135251   -3.008961
C      3.426518   -2.128514   -2.279044
C      3.150055   -3.216808   -1.448485
C      2.134666   -3.132292   -0.491636
C      1.373930   -1.952417   -0.362976
O      0.360437   -1.817910    0.605063
C      0.060739   -2.747350    1.650830
O     -1.213514   -2.398221    2.173125
C     -1.460001   -3.049328    3.405033
C     -2.959560   -2.960844    3.711191
O     -3.256266   -3.649781    4.892419
C     -0.609279   -2.391190    4.523186
O     -0.409296   -3.326799    5.553619
C      0.761826   -1.907047    3.971907
O      0.735692   -0.526790    3.680424
C      1.193387   -2.712440    2.726471
O      1.505457   -4.030188    3.107039
C     -1.145280    1.529371   -4.287522
C     -0.673795    1.914595   -5.549553
H      2.659421    4.017977   -6.798021
H      1.336550    5.267429   -6.814601
H      1.793313    4.410789   -8.330216
H      1.587814    4.273175   -4.567947
H      0.756133    3.605335   -2.363162
H     -0.940476    2.528738   -1.006321
H     -2.279664    1.678232   -1.819901
H     -0.888615   -0.391436   -2.042199
H     -1.111757    0.123919   -0.336483
H      3.696411    0.099031   -3.698713
H      4.216571   -2.208639   -3.016264
H      3.731733   -4.126863   -1.538652
H      1.959041   -3.988500    0.147669
H     -0.025816   -3.764302    1.204865
H     -1.209011   -4.135749    3.324691
H     -3.527425   -3.414648    2.868074
H     -3.265491   -1.895257    3.804514
H     -4.236175   -3.553470    5.027488
H     -1.155912   -1.505272    4.927505
H     -0.236052   -2.813958    6.383073
H      1.536968   -2.047203    4.758936
H     -0.016662   -0.351867    3.058281
H      2.104498   -2.230414    2.295407
H      2.436413   -4.029139    3.448722
H     -1.909777    0.762878   -4.216257
H     -1.076645    1.443376   -6.438147
