40

N     -0.551104   -1.121784    1.920548
C      0.068459    0.177132    1.612689
C      0.189100    0.341767    0.069923
C     -1.141067    0.397930   -0.633394
C     -1.828833   -0.713136   -0.926882
C     -3.153208   -0.714965   -1.595206
C     -3.957747   -1.862826   -1.487530
C     -5.210763   -1.913516   -2.105659
C     -5.671047   -0.823079   -2.846074
C     -4.876530    0.317931   -2.974578
C     -3.622440    0.375019   -2.357971
C     -0.806791    1.291796    2.247847
C     -0.172019    2.683366    2.137323
C      1.234402    2.699967    2.680722
C      2.026851    1.529345    2.692724
C      3.346205    1.596373    3.177961
C      3.874092    2.808634    3.628173
C      3.095929    3.966040    3.596852
C      1.784585    3.914871    3.120423
C      1.467390    0.242737    2.206872
O      2.183869   -0.796312    2.224162
H     -0.529794   -1.284726    2.954433
H     -0.000509   -1.894899    1.479612
H      0.744903    1.274110   -0.167726
H      0.795146   -0.488488   -0.356748
H     -1.529459    1.376208   -0.879631
H     -1.416631   -1.670280   -0.629286
H     -3.619118   -2.719056   -0.916638
H     -5.824835   -2.799789   -2.010813
H     -6.640634   -0.864533   -3.325317
H     -5.229807    1.157755   -3.559023
H     -3.022825    1.262196   -2.503669
H     -0.957896    1.068142    3.327896
H     -1.816879    1.310634    1.785198
H     -0.803755    3.399533    2.707086
H     -0.161704    3.019652    1.079450
H      3.972080    0.713280    3.206365
H      4.890536    2.851417    3.997774
H      3.510445    4.905341    3.939526
H      1.196039    4.823785    3.094661
