40

N      2.369033   -0.422017   -0.415761
C      1.419086    0.699033   -0.497777
C      0.068135    0.188642   -1.074578
C     -0.661726   -0.759202   -0.160471
C     -0.427947   -2.077504   -0.183655
C     -1.119946   -3.052811    0.692985
C     -1.731620   -2.678946    1.907667
C     -2.360336   -3.639333    2.706685
C     -2.379168   -4.978462    2.311283
C     -1.762829   -5.362296    1.118670
C     -1.131990   -4.406920    0.316069
C      1.258025    1.343792    0.909200
C      0.433018    2.635879    0.878077
C      0.975901    3.620132   -0.126792
C      1.692580    3.181805   -1.263506
C      2.151612    4.130536   -2.196016
C      1.889095    5.489796   -2.010272
C      1.164765    5.917494   -0.897309
C      0.704624    4.988128    0.037514
C      1.965075    1.736211   -1.462982
O      2.604027    1.353698   -2.482313
H      2.084125   -1.070853    0.353314
H      3.314524   -0.057858   -0.151965
H     -0.603808    1.050158   -1.278623
H      0.240140   -0.302377   -2.058740
H     -1.414328   -0.339078    0.492531
H      0.281698   -2.464423   -0.906535
H     -1.708510   -1.656891    2.259094
H     -2.827267   -3.345496    3.637973
H     -2.865460   -5.719596    2.932354
H     -1.772430   -6.401412    0.815850
H     -0.659048   -4.724492   -0.605416
H      0.789319    0.629070    1.619332
H      2.264617    1.585360    1.318372
H     -0.626349    2.409706    0.634929
H      0.452767    3.085759    1.894838
H      2.710443    3.822643   -3.070827
H      2.244198    6.212550   -2.733541
H      0.956577    6.970770   -0.760197
H      0.136070    5.335065    0.891646
