46

C     -4.763504   -0.150159    0.529952
C     -3.372885   -0.652698    0.780432
C     -2.430343    0.174553    1.408601
C     -1.141352   -0.298064    1.671774
C     -0.779641   -1.602499    1.310786
S      0.842268   -2.197878    1.659753
O      0.881628   -3.683816    1.435239
O      1.189746   -1.942190    3.098790
N      2.002118   -1.457385    0.599996
C      2.283366   -0.044845    0.565992
C      2.605559    0.589108   -0.659482
C      2.509618   -0.127368   -1.947976
O      3.534953   -0.222133   -2.673634
C      1.246021   -0.731040   -2.415135
C      0.051378   -0.333138   -1.956574
C     -1.226705   -0.898048   -2.439096
C     -1.335649   -2.234683   -2.868279
C     -2.572028   -2.745830   -3.274727
C     -3.708593   -1.932172   -3.256909
Br    -5.399079   -2.637990   -3.794542
C     -3.609086   -0.605239   -2.830012
C     -2.376718   -0.092610   -2.415250
C      2.990894    1.938462   -0.667662
C      3.033618    2.667901    0.520751
C      2.704445    2.054051    1.728366
C      2.341226    0.705789    1.754797
C     -1.722995   -2.432327    0.687095
C     -3.015338   -1.964335    0.433656
H     -5.279186   -0.764946   -0.238202
H     -5.346593   -0.190195    1.473421
H     -4.731054    0.898507    0.165639
H     -2.695129    1.184114    1.697788
H     -0.430934    0.351437    2.164411
H      2.403972   -2.071655   -0.142511
H      1.305360   -1.465635   -3.208064
H     -0.001330    0.483436   -1.245972
H     -0.477922   -2.894219   -2.860298
H     -2.647562   -3.777453   -3.593437
H     -4.488058    0.025910   -2.806323
H     -2.321014    0.933501   -2.072515
H      3.237840    2.432083   -1.599904
H      3.322105    3.711003    0.505315
H      2.746604    2.620223    2.649976
H      2.137587    0.253420    2.711915
H     -1.463960   -3.442148    0.397336
H     -3.732168   -2.621475   -0.042931
