46

C      3.691355    6.942535   -0.145767
C      2.807407    5.849613    0.377509
C      3.320425    4.561336    0.594699
C      2.499836    3.554859    1.111879
C      1.163100    3.827697    1.429322
S      0.143329    2.546149    2.073855
O     -1.296054    2.979461    2.121354
O      0.590886    2.215260    3.469814
N      0.281427    1.133098    1.077112
C     -0.464555    0.949768   -0.141265
C     -0.759394   -0.353115   -0.620494
C     -0.440541   -1.564168    0.171167
O     -0.675201   -1.573937    1.410882
C      0.133306   -2.758811   -0.485324
C      0.388377   -3.890880    0.186672
C      0.982421   -5.100010   -0.435056
C      1.619572   -6.040101    0.393911
C      2.184787   -7.197788   -0.148166
C      2.112278   -7.435601   -1.522214
C      1.467878   -6.518678   -2.355652
C      0.900568   -5.358417   -1.819251
C     -1.420044   -0.501221   -1.854125
C     -1.789985    0.616953   -2.601709
C     -1.507074    1.896954   -2.129985
C     -0.848092    2.064798   -0.911512
C      0.653391    5.118483    1.231723
C      1.472615    6.125199    0.712075
H      3.124770    7.593692   -0.845570
H      4.561288    6.522981   -0.694326
H      4.061342    7.556045    0.702291
H      4.353852    4.335475    0.363703
H      2.906564    2.563561    1.268105
H      0.926590    0.383421    1.410653
H      0.382138   -2.681773   -1.534568
H      0.194045   -3.924385    1.252595
H      1.686904   -5.873852    1.462200
H      2.679131   -7.911745    0.498079
H      2.548975   -8.333681   -1.940224
H      1.400776   -6.710845   -3.418787
H      0.381610   -4.686351   -2.488635
H     -1.673192   -1.485408   -2.229731
H     -2.302574    0.490281   -3.546625
H     -1.791939    2.762844   -2.713964
H     -0.618570    3.069906   -0.588635
H     -0.375412    5.348285    1.478879
H      1.066515    7.119417    0.570356
