46

C      3.779749   -2.089793    1.654717
C      3.105921   -0.914319    1.012169
C      2.852794   -0.925271   -0.366989
C      2.215411    0.159405   -0.975463
C      1.813116    1.262315   -0.210947
S      1.006638    2.625834   -0.983600
O      1.771515    3.059218   -2.201899
O      0.970627    3.784917   -0.026781
N     -0.627884    2.206438   -1.394882
C     -0.983582    1.152146   -2.309649
C     -0.244430    0.945423   -3.488685
C     -0.641240   -0.018156   -4.417963
C     -1.789685   -0.776755   -4.194578
F     -2.175832   -1.705521   -5.103673
C     -2.542035   -0.579252   -3.036084
C     -2.143807    0.371333   -2.083945
C     -2.938093    0.507590   -0.846005
O     -4.153199    0.828353   -0.931778
C     -2.355837    0.271574    0.489761
C     -1.239780   -0.448469    0.668787
C     -0.674376   -0.740607    2.004206
C     -0.812902    0.152098    3.085141
C     -0.233800   -0.144483    4.323067
C      0.486411   -1.329180    4.494652
C      0.633242   -2.218084    3.427534
C      0.062292   -1.922969    2.185839
C      2.059647    1.271600    1.169393
C      2.707971    0.192991    1.777263
H      3.158169   -2.999081    1.510932
H      4.773961   -2.251989    1.187660
H      3.923893   -1.930864    2.744744
H      3.151639   -1.773587   -0.970616
H      2.039097    0.137856   -2.041782
H     -1.376082    2.654597   -0.821324
H      0.623272    1.543734   -3.715699
H     -0.063688   -0.164982   -5.321397
H     -3.426990   -1.181668   -2.869761
H     -2.908445    0.636516    1.346230
H     -0.755843   -0.903044   -0.187853
H     -1.340698    1.089236    2.970532
H     -0.338473    0.547962    5.148443
H      0.933925   -1.556534    5.453678
H      1.197996   -3.132289    3.559191
H      0.196216   -2.617612    1.365144
H      1.747919    2.108302    1.779067
H      2.885113    0.216818    2.845269
