50

C      8.140484    2.123490    3.844030
O      6.823648    2.660340    3.917594
C      5.705318    2.105083    3.278117
C      5.786189    0.943999    2.488154
C      4.641668    0.428671    1.872991
C      3.394716    1.052204    2.040947
C      2.213099    0.467803    1.359757
C      0.944859    0.703800    1.728382
C     -0.216315    0.107502    1.034365
O     -1.351700    0.622936    1.216975
C     -0.104685   -1.089387    0.168240
C      0.531314   -2.237849    0.671938
C      0.596834   -3.404884   -0.089922
C      0.024691   -3.442371   -1.360264
C     -0.613100   -2.312544   -1.874799
C     -0.691317   -1.126600   -1.120509
N     -1.318484    0.044264   -1.675165
S     -2.667375   -0.041651   -2.762128
O     -2.163394   -0.300871   -4.154322
O     -3.407113    1.265988   -2.743552
C     -3.765328   -1.317867   -2.245268
C     -4.154982   -1.394764   -0.901972
C     -5.008080   -2.415740   -0.473649
C     -5.471852   -3.377926   -1.384081
C     -6.415951   -4.453546   -0.935499
C     -5.097738   -3.286290   -2.733469
C     -4.244512   -2.264437   -3.160905
C      3.321752    2.223703    2.820161
C      4.467884    2.737679    3.433887
H      8.156844    1.093481    4.259040
H      8.824819    2.758648    4.442752
H      8.491925    2.117034    2.790517
H      6.727740    0.432339    2.342424
H      4.729190   -0.467429    1.270216
H      2.405373   -0.207442    0.534789
H      0.728827    1.370088    2.551750
H      0.963759   -2.234564    1.665184
H      1.087855   -4.283567    0.307902
H      0.079076   -4.348063   -1.950542
H     -1.029367   -2.363814   -2.871270
H     -1.032296    0.993372   -1.348028
H     -3.795426   -0.665715   -0.186656
H     -5.304489   -2.456692    0.567299
H     -6.236333   -5.390313   -1.505051
H     -6.276510   -4.676364    0.143942
H     -7.461421   -4.120820   -1.103903
H     -5.465163   -4.006762   -3.453781
H     -3.959279   -2.215015   -4.203614
H      2.393442    2.763252    2.942669
H      4.395215    3.638818    4.029733
