45

O     -4.103113    3.738365    0.185039
C     -3.087140    3.013994    0.358185
C     -3.274980    1.627131    0.833518
C     -2.277008    0.914445    1.375489
C     -2.405889   -0.494772    1.818173
C     -3.440211   -1.341480    1.368567
C     -3.500376   -2.671465    1.797356
C     -2.530341   -3.173563    2.667402
C     -1.491640   -2.349477    3.104238
C     -1.425686   -1.019833    2.678763
C     -1.748074    3.584444    0.092735
C     -1.358159    4.720531    0.819674
C     -0.082636    5.260530    0.660236
C      0.816011    4.675620   -0.228905
C      0.437812    3.559972   -0.978347
C     -0.852070    3.004895   -0.845339
N     -1.271803    1.897616   -1.673895
S     -0.235504    1.059529   -2.789155
O      0.260647    2.045079   -3.810376
O     -1.031243   -0.008817   -3.484105
C      1.111581    0.295779   -1.930138
C      0.936710   -0.031232   -0.576720
C      1.990913   -0.552976    0.173297
C      3.234900   -0.757615   -0.421133
C      3.420780   -0.461967   -1.772892
C      2.363033    0.044164   -2.548319
N      2.576285    0.269116   -3.950680
O      3.807838    0.690258   -4.396887
O      1.738695   -0.131113   -4.785051
H     -4.271559    1.213910    0.765845
H     -1.317473    1.393402    1.530107
H     -4.189414   -0.996197    0.670422
H     -4.297030   -3.315947    1.448565
H     -2.580001   -4.203090    2.998153
H     -0.735301   -2.741754    3.772022
H     -0.608895   -0.398294    3.025274
H     -2.037233    5.175640    1.530973
H      0.212703    6.129130    1.233996
H      1.807684    5.093438   -0.345393
H      1.160839    3.147543   -1.665187
H     -2.270057    1.595336   -1.673453
H     -0.017726    0.122831   -0.097211
H      1.843532   -0.793617    1.218450
H      4.053585   -1.158323    0.162798
H      4.386242   -0.653784   -2.223824
