46

C      1.792722    4.089013   -5.735325
C      1.062884    3.835016   -4.449703
C      0.581299    2.549823   -4.157868
C     -0.069197    2.299576   -2.946582
C     -0.233785    3.327211   -2.009458
S     -1.044348    2.995764   -0.482869
O     -0.745810    4.072730    0.523051
O     -2.528600    2.947426   -0.712012
N     -0.511206    1.468692    0.144736
C      0.715697    1.301491    0.880569
C      0.863655    0.238589    1.809256
C     -0.269168   -0.648390    2.163947
O     -1.412060   -0.148576    2.354866
C     -0.063290   -2.105975    2.309584
C     -1.054027   -2.936003    2.666774
C     -0.884863   -4.403553    2.808157
C      0.367966   -4.999949    3.059029
C      0.475263   -6.387844    3.195361
C     -0.661591   -7.194163    3.092495
Cl    -0.522229   -8.934024    3.259953
C     -1.910486   -6.610720    2.862156
C     -2.022907   -5.223496    2.726580
C      2.101682    0.052706    2.452118
C      3.175638    0.903176    2.188628
C      3.030007    1.951650    1.283276
C      1.812230    2.149988    0.631896
C      0.258180    4.608640   -2.292486
C      0.909243    4.860074   -3.503472
H      1.795485    5.171898   -5.984380
H      2.841599    3.739051   -5.639649
H      1.302937    3.543692   -6.570325
H      0.709988    1.742386   -4.867010
H     -0.440267    1.304506   -2.736849
H     -1.135980    0.648904   -0.019557
H      0.917141   -2.499576    2.079010
H     -2.047654   -2.532026    2.823966
H      1.262637   -4.403290    3.175183
H      1.442674   -6.833806    3.387823
H     -2.795133   -7.229929    2.787951
H     -2.999861   -4.790591    2.547270
H      2.232108   -0.738768    3.179754
H      4.121514    0.752266    2.692902
H      3.866037    2.608326    1.078574
H      1.742030    2.954905   -0.085232
H      0.145031    5.411380   -1.575421
H      1.293389    5.853509   -3.701404
