68

C     -2.494605   -5.999766    0.875540
C     -1.082441   -6.513432    1.130216
C     -0.180626   -6.302556   -0.094781
C      1.185100   -6.968271    0.118635
C      2.175447   -6.653986   -1.024493
C      3.270312   -5.635485   -0.648728
C      2.768747   -4.186283   -0.489649
C      2.398440   -3.843880    0.964284
C      2.067882   -2.382802    1.120540
C      0.854878   -1.875224    0.624900
C      0.507246   -0.535115    0.842022
C      1.366098    0.317809    1.571339
C      0.990882    1.711709    1.917380
O      1.488179    2.234397    2.950983
C      0.091410    2.567362    1.061920
C      0.796950    3.098268   -0.207804
C      2.115305    3.834729    0.089561
C      1.730893    5.307356    0.239180
C      0.457645    5.476569   -0.583514
N     -0.039120    4.127893   -0.815786
C     -1.254589    3.880802   -1.535864
O     -1.554637    2.705496   -1.887607
O     -2.105214    4.962248   -1.821432
C     -3.311241    4.921234   -2.599368
C     -4.319803    3.913648   -2.000701
C     -3.924826    6.335047   -2.534650
C     -2.987265    4.573749   -4.066546
C      2.601214   -0.187495    2.024621
C      2.950154   -1.521125    1.794715
H     -2.905685   -6.429027   -0.067566
H     -3.148368   -6.308438    1.715000
H     -2.494018   -4.887403    0.803103
H     -0.651846   -5.964299    2.002386
H     -1.133634   -7.597342    1.385786
H     -0.659287   -6.745685   -1.001463
H     -0.052291   -5.210946   -0.273408
H      1.020195   -8.069113    0.154397
H      1.617288   -6.693474    1.106930
H      2.688328   -7.605082   -1.296208
H      1.645145   -6.312752   -1.940582
H      4.021982   -5.650491   -1.471419
H      3.810749   -5.972877    0.263824
H      1.905331   -3.996277   -1.167513
H      3.589226   -3.504681   -0.805800
H      3.232949   -4.124690    1.641860
H      1.516754   -4.426237    1.291992
H      0.163250   -2.522617    0.104051
H     -0.450398   -0.192219    0.477686
H     -0.814289    1.991405    0.765583
H     -0.279169    3.427605    1.672222
H      0.978738    2.263559   -0.923309
H      2.664052    3.458493    0.984069
H      2.789684    3.724492   -0.789066
H      2.539184    5.972966   -0.130838
H      1.526866    5.533211    1.308579
H     -0.296192    6.075113   -0.025022
H      0.684363    5.965495   -1.555141
H     -5.324527    4.052423   -2.450200
H     -4.398689    4.063079   -0.898974
H     -4.020685    2.863924   -2.202100
H     -3.219682    7.083450   -2.958490
H     -4.872759    6.385294   -3.113710
H     -4.125068    6.614166   -1.473859
H     -2.272109    5.313839   -4.469882
H     -3.912484    4.606077   -4.688490
H     -2.547901    3.555341   -4.146127
H      3.295807    0.451237    2.561084
H      3.900506   -1.887003    2.165722
