47

C      1.478211    4.106275    3.679652
C      2.606983    3.136675    3.489933
O      3.356637    2.906153    4.426637
C      2.839075    2.451430    2.168927
C      2.554005    0.950078    2.276670
N      2.707874    0.307782    0.950224
C      4.094910   -0.151038    0.754616
C      1.766934   -0.820956    0.778998
C      0.410422   -0.307165    0.268253
C     -0.615389   -1.452609    0.088993
C     -2.039884   -0.957209   -0.108633
C     -3.104988   -1.699973    0.435513
C     -4.428417   -1.294351    0.240667
C     -4.707096   -0.150940   -0.510127
C     -3.662989    0.585893   -1.072459
C     -2.337224    0.185264   -0.880940
C     -0.229182   -2.399931   -1.033330
C     -0.118947   -1.949272   -2.363491
C      0.237014   -2.835722   -3.384135
C      0.484783   -4.178498   -3.091659
C      0.375586   -4.638336   -1.777550
C      0.019978   -3.756324   -0.752819
H      1.886099    5.102430    3.950939
H      0.871657    4.209343    2.755719
H      0.817378    3.749658    4.497248
H      3.891371    2.623512    1.859294
H      2.182605    2.886911    1.384836
H      3.225145    0.484356    3.035011
H      1.515871    0.835673    2.661785
H      4.344890   -0.980370    1.453537
H      4.234389   -0.502634   -0.290227
H      4.810998    0.682579    0.912334
H      2.154274   -1.543856    0.025332
H      1.639483   -1.382845    1.732752
H     -0.001510    0.426523    0.993563
H      0.578321    0.228625   -0.689852
H     -0.604640   -2.013013    1.051920
H     -2.910780   -2.597459    1.009840
H     -5.238840   -1.870412    0.668332
H     -5.732498    0.160666   -0.661517
H     -3.881099    1.467169   -1.661941
H     -1.553017    0.770885   -1.339114
H     -0.306290   -0.914355   -2.614595
H      0.320860   -2.480715   -4.403228
H      0.760387   -4.862945   -3.883473
H      0.566895   -5.679515   -1.552185
H     -0.059135   -4.133417    0.259142
