25

C      2.289819    3.175397    1.544658
C      1.949273    1.889423    0.854764
O      1.440302    0.978108    1.489879
C      2.266902    1.700246   -0.605391
C      1.008844    1.772883   -1.481584
C      0.095635    0.592485   -1.265686
C     -1.053022    0.717272   -0.469736
C     -1.886037   -0.384125   -0.253579
C     -1.583325   -1.632405   -0.827740
N     -2.437982   -2.769385   -0.607203
O     -2.138199   -3.989115   -1.169611
O     -3.464233   -2.667867    0.096768
C     -0.428878   -1.753702   -1.620678
C      0.403629   -0.651633   -1.835719
H      3.390303    3.320251    1.540628
H      1.807171    4.022082    1.013137
H      1.932431    3.163296    2.596510
H      2.787523    0.728983   -0.752298
H      2.966006    2.499104   -0.935680
H      0.471672    2.727274   -1.285682
H      1.318964    1.796057   -2.549046
H     -1.301622    1.666613   -0.011536
H     -2.765733   -0.259659    0.364719
H     -0.167425   -2.701098   -2.073806
H      1.290753   -0.767994   -2.446123
