25

C     -0.799663    3.485460   -0.191915
C      0.543712    3.386767    0.467824
O      1.505021    3.931302   -0.053488
C      0.728931    2.628025    1.757169
C      1.529668    1.337177    1.544108
C      0.773914    0.351972    0.688492
C     -0.223756   -0.455050    1.254703
C     -0.954048   -1.340399    0.456918
C     -0.704281   -1.428896   -0.924859
N     -1.455384   -2.337510   -1.750707
O     -1.209637   -2.419986   -3.102269
O     -2.340722   -3.065251   -1.255089
C      0.290120   -0.611251   -1.489457
C      1.020301    0.272993   -0.690376
H     -1.570907    2.923928    0.375654
H     -1.105848    4.550523   -0.255023
H     -0.740078    3.062076   -1.216506
H     -0.253640    2.383181    2.215843
H      1.271433    3.277382    2.477591
H      2.516387    1.574364    1.088446
H      1.738223    0.877328    2.534670
H     -0.438704   -0.395175    2.314555
H     -1.716739   -1.952855    0.920424
H      0.501758   -0.651844   -2.550011
H      1.774063    0.901283   -1.148695
