44

C      2.548743    4.501004   -0.253546
O      1.960971    3.238208   -0.540281
C      0.638123    3.101272   -0.979518
O     -0.091195    4.127441   -1.077382
C      0.042622    1.698301   -1.189384
C     -1.028344    1.696236   -2.314527
C     -0.669739    2.474126   -3.593541
C     -2.323031    2.172621   -1.662086
C     -2.163280    1.940074   -0.156685
C     -0.782479    1.254882    0.084816
C     -0.166942    1.792358    1.415083
C     -0.979828   -0.324011    0.154248
C     -1.714752   -0.808935    1.434881
C      0.343757   -1.138658   -0.085103
O      1.312215   -0.823509    0.890555
C      0.100093   -2.649558   -0.073292
C     -0.763093   -3.265471   -0.892270
C      0.939880   -0.765909   -1.448596
C      1.149686    0.713751   -1.568858
O      2.156396    1.106978   -2.142285
H      3.599258    4.349073    0.068405
H      2.538772    5.139760   -1.161996
H      1.990243    5.002354    0.565109
H     -1.209879    0.647365   -2.638913
H     -1.440477    2.283571   -4.370346
H      0.309456    2.130928   -3.987725
H     -0.626009    3.568266   -3.422853
H     -2.502655    3.252656   -1.859595
H     -3.189973    1.599640   -2.059483
H     -2.215466    2.927017    0.354597
H     -3.024229    1.350574    0.214400
H      0.883208    1.464860    1.538153
H     -0.755488    1.477790    2.299014
H     -0.165700    2.901874    1.449785
H     -1.666261   -0.587757   -0.680161
H     -2.064592   -1.854314    1.306187
H     -2.613060   -0.203891    1.659330
H     -1.061286   -0.779645    2.328579
H      1.037520   -1.218526    1.757627
H      0.653243   -3.263938    0.631885
H     -1.347954   -2.715071   -1.621046
H     -0.889454   -4.341533   -0.833314
H      1.913198   -1.291071   -1.579095
H      0.280019   -1.093883   -2.279016
