36

C      2.891602   -1.605383    0.129986
C      1.395063   -1.696264    0.082893
C      0.742712   -2.487161   -0.763440
C     -0.732285   -2.469203   -0.537545
C     -0.938537   -1.315252    0.470522
O     -1.698490   -1.770222    1.584431
C     -0.909376   -1.954593    2.698407
O     -1.361626   -2.382461    3.792015
C      0.506311   -1.607458    2.467317
C      0.465616   -1.012802    1.040324
C      0.556515    0.480946    1.043346
O      1.553850    1.086863    1.408318
C     -0.705321    1.165013    0.621913
C     -1.400424    1.807995    1.837638
C     -0.446624    2.147774   -0.460964
O      0.032533    3.299462   -0.285511
O     -0.765663    1.656369   -1.703403
C     -1.147044    0.296580   -1.621315
C     -1.496726    0.038251   -0.112424
C     -3.034109    0.136015    0.048305
H      3.217477   -0.973271    0.981568
H      3.325926   -2.619222    0.257612
H      3.267927   -1.160641   -0.814839
H      1.233181   -3.120004   -1.496438
H     -1.030923   -3.442613   -0.091643
H     -1.293207   -2.335231   -1.485099
H      0.857439   -0.876401    3.227718
H      1.123800   -2.530550    2.518776
H     -0.722306    2.541718    2.324210
H     -2.320967    2.348130    1.530480
H     -1.666996    1.033598    2.588139
H     -0.274853   -0.298197   -1.957050
H     -1.995040    0.094339   -2.310744
H     -3.407525    1.103834   -0.350367
H     -3.346744    0.054522    1.109858
H     -3.525177   -0.687013   -0.513692
