23

C      0.830691    3.198736   -0.446539
C      0.514512    2.968440    1.001223
O      0.186580    3.961669    1.706107
C      0.575719    1.613603    1.616143
C      0.292591    1.450164    2.984449
C      0.314560    0.178806    3.580773
C      0.038251    0.024548    5.056407
F      1.219505    0.175482    5.758249
F     -0.491172   -1.225221    5.328531
F     -0.867266    0.978792    5.487314
C      0.683143   -0.933659    2.808271
C      0.998560   -0.790608    1.447873
C      1.332451   -2.001403    0.610921
F      1.943076   -2.977283    1.379746
F      0.168432   -2.516235    0.071730
F      2.194334   -1.662101   -0.417799
C      0.913303    0.479371    0.853682
H      0.747829    4.277942   -0.696859
H      0.116145    2.635571   -1.082616
H      1.867905    2.867981   -0.663797
H      0.048276    2.314272    3.590077
H      0.724462   -1.913759    3.267326
H      1.116484    0.575841   -0.204361
