28

C     -1.465008   -0.421973    1.062623
C     -0.753404   -1.751369    1.353428
C      0.568823   -1.366820    1.898225
O      1.395231   -2.194061    2.252053
C      0.799552    0.097260    2.010410
C      1.997949    0.518194    1.203794
O      2.101852    0.173699   -0.006664
O      2.977759    1.316073    1.801250
C      4.130332    1.766926    1.100338
C     -0.504460    0.739696    1.488517
C     -1.129013    1.700744    2.529657
C     -2.538012    2.044619    2.131718
C     -3.363280    1.064066    1.745460
C     -2.860708   -0.353507    1.731470
H     -1.622648   -0.348774   -0.038115
H     -0.617488   -2.337679    0.418888
H     -1.293361   -2.374009    2.099432
H      0.979285    0.339620    3.081291
H      4.755393    2.379143    1.782217
H      3.827678    2.390311    0.232404
H      4.725802    0.897730    0.749025
H     -0.295539    1.350409    0.578918
H     -0.521337    2.627777    2.607717
H     -1.159805    1.216447    3.530433
H     -2.865291    3.079332    2.104999
H     -4.367268    1.295189    1.403337
H     -3.578819   -1.004032    1.187612
H     -2.799343   -0.705736    2.784653
