50

C      0.931461    2.480425   -5.287758
C      0.357252    1.690341   -4.149351
C      0.354025    0.292992   -4.200611
C     -0.202215   -0.451310   -3.158110
C     -0.753839    0.181196   -2.019080
C     -1.411702   -0.669428   -0.906439
C     -1.512766    0.061108    0.486123
C     -0.235775    0.351126    1.333697
C      1.051447    0.814157    0.606233
C      2.131914    0.199758    1.412723
C      3.504932    0.419497    1.275432
C      4.388560   -0.296898    2.097239
C      3.891349   -1.225107    3.029791
C      2.508943   -1.439527    3.143175
C      1.646676   -0.710071    2.321179
C      0.169567   -0.809619    2.275396
C     -2.856758   -0.970453   -1.410269
C     -3.634849   -2.009413   -0.571421
C     -2.759636   -3.133652    0.019366
C     -1.431156   -3.301974   -0.717490
C     -0.675955   -2.000176   -0.728861
O      0.543380   -2.027327   -0.645011
C     -0.800397    1.595591   -2.016838
C     -0.240919    2.336263   -3.061663
H      1.904448    2.044694   -5.600723
H      1.105099    3.538551   -4.996159
H      0.229042    2.454953   -6.147498
H      0.774849   -0.222897   -5.055153
H     -0.209612   -1.529192   -3.252985
H     -2.082645    1.004747    0.373028
H     -2.178248   -0.531344    1.147286
H     -0.513437    1.192357    2.011239
H      1.153317    0.427050   -0.419447
H      1.138529    1.922371    0.602592
H      3.881673    1.125413    0.546646
H      5.455512   -0.139637    2.008204
H      4.576632   -1.779020    3.658166
H      2.119944   -2.158283    3.852695
H     -0.125780   -1.803910    1.884263
H     -0.262424   -0.671487    3.290480
H     -2.806132   -1.361860   -2.452055
H     -3.448707   -0.029466   -1.458732
H     -4.419409   -2.461724   -1.217123
H     -4.168174   -1.493327    0.256152
H     -3.318841   -4.093751   -0.010057
H     -2.547677   -2.913770    1.088784
H     -0.830458   -4.086449   -0.207463
H     -1.615792   -3.628202   -1.763704
H     -1.257025    2.151929   -1.215645
H     -0.281130    3.417835   -3.022208
