44

C      0.385902   -3.001729   -3.267137
C      1.395966   -3.265533   -2.150515
C      0.726555   -3.678909   -0.830368
C     -0.001689   -2.510845   -0.149133
C     -0.565248   -2.936116    1.216019
C     -1.389753   -1.823265    1.883028
C     -0.505042   -0.707953    2.467332
C     -1.332867    0.383228    3.170176
C     -2.009157    1.365754    2.187241
C     -1.263598    2.703980    2.045529
C      0.097896    2.555156    1.356867
C      0.711717    3.906541    1.093454
O      1.152470    4.548940    2.035287
C      0.816961    4.482060   -0.297739
F      0.067361    3.756225   -1.207795
F      0.326158    5.774927   -0.280287
S      2.565620    4.539582   -0.834344
C      2.797764    2.739131   -1.018542
H     -0.284186   -3.878029   -3.399643
H      0.930263   -2.826877   -4.218409
H     -0.220487   -2.099676   -3.045509
H      2.067207   -4.089654   -2.477137
H      2.025078   -2.361602   -1.996055
H      1.517079   -4.056284   -0.145519
H      0.015943   -4.514406   -1.014620
H     -0.838601   -2.166862   -0.793489
H      0.713204   -1.672044   -0.016171
H      0.261028   -3.251491    1.889966
H     -1.231128   -3.814380    1.067657
H     -1.978929   -2.277663    2.708960
H     -2.113975   -1.407531    1.150828
H      0.118493   -0.254289    1.671838
H      0.182939   -1.157859    3.216674
H     -2.111519   -0.100847    3.799882
H     -0.673325    0.938384    3.872702
H     -3.026767    1.593180    2.573425
H     -2.149186    0.911140    1.183581
H     -1.898916    3.386973    1.440262
H     -1.132083    3.168616    3.047117
H     -0.022592    1.986878    0.410537
H      0.790867    1.981301    2.007022
H      2.081283    2.328673   -1.759627
H      2.667077    2.228983   -0.042543
H      3.828654    2.546373   -1.380002
