44

C      5.437532   -0.904735   -2.471754
C      4.081052   -0.268187   -2.183643
C      2.971199   -1.324789   -2.141277
C      1.610772   -0.679982   -1.853792
C      0.498822   -1.734972   -1.801851
C     -0.856537   -1.083581   -1.506916
C     -1.974291   -2.132813   -1.415063
C     -3.339206   -1.500125   -1.067401
C     -3.769051   -1.707667    0.398569
C     -2.846772   -1.061368    1.446667
C     -2.847691    0.472005    1.379214
C     -1.991373    1.050043    2.476498
O     -2.431545    1.090925    3.616153
C     -0.603922    1.565186    2.190940
F      0.142649    0.552688    1.615985
F      0.007730    1.954337    3.371144
S     -0.695260    3.000684    1.061123
C      1.105021    3.186389    0.844909
H      6.220204   -0.117379   -2.494238
H      5.421507   -1.417467   -3.457014
H      5.695355   -1.639453   -1.679396
H      4.132360    0.261062   -1.207033
H      3.858386    0.478208   -2.977179
H      2.928386   -1.853915   -3.118980
H      3.201567   -2.068135   -1.346191
H      1.378613    0.060480   -2.650983
H      1.656801   -0.145766   -0.878866
H      0.732447   -2.474953   -1.004624
H      0.447199   -2.267570   -2.776941
H     -1.099829   -0.358693   -2.314719
H     -0.783513   -0.527052   -0.552959
H     -2.057419   -2.636131   -2.403627
H     -1.704690   -2.916283   -0.673330
H     -4.112416   -1.986519   -1.701678
H     -3.368874   -0.422418   -1.334358
H     -3.823419   -2.799414    0.602353
H     -4.797839   -1.305952    0.527920
H     -3.207839   -1.372200    2.451749
H     -1.813004   -1.452286    1.340383
H     -3.884855    0.857518    1.485262
H     -2.465492    0.808908    0.395148
H      1.524893    2.293719    0.336581
H      1.300910    4.077389    0.214040
H      1.600683    3.329602    1.827310
