24

O     -1.595026   -0.587637   -3.407907
C     -1.271231   -0.935212   -2.239809
C     -1.569883   -2.365116   -1.841081
N     -0.806169   -2.799133   -0.671844
C      0.159513   -3.735836   -0.623180
C      0.656990   -3.819862    0.665585
C     -0.034999   -2.891978    1.425224
C     -0.933911   -2.298882    0.565237
S     -1.981915   -0.903924    0.913404
C     -0.828667    0.163237    0.044475
C     -0.118039    1.102138    0.804178
C      0.769377    1.985342    0.189910
C      0.958575    1.936106   -1.189759
C      0.272765    0.993272   -1.958246
C     -0.616095    0.079373   -1.359077
H     -2.655653   -2.457556   -1.624539
H     -1.346147   -3.034688   -2.700364
H      0.497397   -4.315461   -1.472531
H      1.451348   -4.469094    1.008350
H      0.120843   -2.658498    2.469886
H     -0.263978    1.157834    1.875686
H      1.307611    2.712445    0.784180
H      1.645679    2.624216   -1.665167
H      0.456571    0.962887   -3.025410
