30

O      2.101972   -1.642258   -1.860426
C      1.714470   -1.057284   -0.814096
C      0.436889   -1.490892   -0.134875
N     -0.049328   -0.534420    0.884752
C     -1.404921   -0.710138    1.421169
C     -2.287186    0.434745    0.999558
C     -2.701166    0.548644   -0.338071
C     -3.503374    1.621614   -0.738627
C     -3.895355    2.588519    0.191068
C     -3.485359    2.484189    1.522982
C     -2.683151    1.412701    1.927871
C      0.827234    0.464723    1.452091
O      0.473741    1.142588    2.455216
N      2.099436    0.688303    0.848405
C      3.045916    1.590305    1.165017
C      4.099286    1.472741    0.273745
C      3.766826    0.460268   -0.613924
C      2.524040    0.006318   -0.217734
H     -0.342972   -1.626345   -0.914714
H      0.612942   -2.474395    0.350129
H     -1.361110   -0.798656    2.528854
H     -1.851965   -1.659024    1.050367
H     -2.403203   -0.192132   -1.069154
H     -3.820190    1.704074   -1.770273
H     -4.515744    3.418809   -0.120674
H     -3.788045    3.234623    2.241804
H     -2.370822    1.347679    2.962672
H      2.977961    2.296445    1.982547
H      5.006316    2.062051    0.267679
H      4.361350    0.102359   -1.444061
