37

C     -2.488163   -2.751651   -0.042447
C     -2.342291   -1.243180   -0.260944
C     -3.064433   -0.478504    0.847438
O     -0.969366   -0.893608   -0.226783
C     -0.424459   -0.791171   -1.533980
O     -0.819482    0.419166   -2.163322
C     -0.409098    1.553041   -1.413475
C     -1.081987    2.791966   -2.026908
O     -0.826618    3.941033   -1.264277
C      1.130281    1.690947   -1.420684
O      1.516935    2.653719   -0.472440
C      1.782831    0.369564   -1.101329
O      2.922671    0.348402   -0.659068
C      1.113783   -0.919116   -1.510276
N      1.544584   -2.059849   -0.687724
C      1.522332   -2.091408    0.749776
C      1.863752   -3.355191    1.468763
O      1.247065   -1.055716    1.414001
H     -1.986193   -3.305944   -0.862785
H     -3.561305   -3.038781   -0.033754
H     -2.023130   -3.050540    0.921594
H     -2.841162   -0.968722   -1.221999
H     -4.144422   -0.739106    0.857779
H     -2.622219   -0.718628    1.838253
H     -2.970026    0.614005    0.671460
H     -0.783416   -1.636202   -2.167475
H     -0.767236    1.483060   -0.360777
H     -0.704789    2.954765   -3.059218
H     -2.180959    2.623031   -2.099193
H     -1.396471    3.876948   -0.453786
H      1.462286    1.995730   -2.441172
H      2.398233    3.008250   -0.761800
H      1.438263   -1.111985   -2.557357
H      1.871775   -2.916857   -1.188801
H      1.625326   -3.266127    2.550003
H      1.278361   -4.196680    1.042584
H      2.947020   -3.566120    1.351892
