37

C     -0.396203   -0.511868   -2.487265
C     -0.496789    0.640908   -1.480580
C     -1.268245    1.814830   -2.091677
O     -1.198822    0.192500   -0.331280
C     -0.319210   -0.036844    0.755111
O      0.101921    1.217142    1.284362
C      1.068568    1.079190    2.322628
C      2.421764    0.535736    1.804036
O      3.466786    0.925483    2.660329
C      0.518263    0.286812    3.533437
O     -0.347339    1.111381    4.269825
C     -0.232921   -0.930347    3.068283
O     -0.240863   -1.943695    3.752226
C     -1.065104   -0.859458    1.819118
N     -2.362449   -0.244985    2.127290
C     -3.612283   -0.782356    1.667865
C     -4.881800   -0.034324    1.918676
O     -3.648014   -1.861112    1.014992
H     -1.409741   -0.888236   -2.750639
H      0.119946   -0.175950   -3.414002
H      0.188999   -1.349223   -2.045228
H      0.536330    1.009847   -1.259704
H     -2.301689    1.504159   -2.358626
H     -0.752847    2.185336   -3.005038
H     -1.319122    2.649671   -1.354226
H      0.546849   -0.648726    0.405008
H      1.277820    2.112550    2.683133
H      2.398221   -0.574963    1.693692
H      2.623594    0.968920    0.800711
H      3.588889    0.193829    3.322019
H      1.368380   -0.027405    4.183000
H     -0.434278    0.699951    5.169800
H     -1.205804   -1.893298    1.427538
H     -2.374118    0.686868    2.602169
H     -5.754058   -0.717592    1.848219
H     -4.861158    0.415533    2.934261
H     -4.989944    0.772839    1.165500
