31

C      0.571467   -3.004792   -1.255255
O      0.407896   -2.225146   -0.090474
C      0.324965   -0.854350   -0.431670
O     -0.941940   -0.582618   -1.005489
C     -1.024279    0.722600   -1.576993
C     -0.766585    0.644878   -3.090219
O     -1.643150   -0.269049   -3.692331
C     -0.129862    1.813781   -0.906287
O     -0.797281    3.050832   -0.938547
C      0.210317    1.430453    0.512330
O      0.335383    2.286910    1.375445
C      0.483667   -0.010031    0.843204
N     -0.456239   -0.460471    1.875032
C     -0.077010   -1.346395    2.937650
C     -1.108421   -1.837661    3.900078
O      1.115225   -1.741135    3.048791
H     -0.265810   -2.851679   -1.971832
H      1.546245   -2.789484   -1.745904
H      0.572025   -4.075570   -0.965766
H      1.153294   -0.582235   -1.133581
H     -2.081216    1.044816   -1.446103
H     -0.884684    1.651453   -3.553296
H      0.274873    0.306998   -3.276014
H     -2.526242    0.180787   -3.751452
H      0.834532    1.892219   -1.462371
H     -0.103688    3.757205   -0.859189
H      1.531781   -0.091125    1.206418
H     -1.469440   -0.224829    1.765389
H     -0.626051   -2.325789    4.773509
H     -1.720968   -0.985058    4.260783
H     -1.767210   -2.571987    3.391757
