56

C      2.560316   -2.904250    1.296969
C      1.461152   -2.813959    2.349263
N      1.237066   -1.420396    2.762813
C      2.061325   -0.858746    3.841394
C      1.385692   -1.052141    5.195371
C      0.159981   -0.638285    2.203139
O     -0.300021    0.348556    2.838063
C     -0.435347   -0.966963    0.898000
C      0.082895   -0.712070   -0.375528
C      1.370373   -0.026400   -0.652092
O      2.072620   -0.396261   -1.629878
C      1.904536    1.020595    0.243036
C      3.211101    0.885016    0.735804
C      3.725773    1.846131    1.606391
N      2.967830    2.912396    1.969262
C      1.706151    3.084632    1.494722
C      1.147080    2.152080    0.614548
Br    -0.608649    2.499789   -0.076285
N     -0.777702   -1.173250   -1.330377
C     -0.656763   -1.015813   -2.787155
C     -0.994454    0.394184   -3.194541
C      0.008741    1.269597   -3.644857
C     -0.310454    2.583487   -4.001119
C     -1.630350    3.032786   -3.911886
C     -2.633880    2.168747   -3.467265
C     -2.319020    0.854600   -3.108508
C     -1.836215   -1.687712   -0.658792
C     -3.002941   -2.263781   -1.180270
C     -3.972400   -2.735279   -0.276606
C     -3.769298   -2.624881    1.114580
C     -2.596179   -2.037784    1.615726
C     -1.652426   -1.576806    0.697408
H      2.783196   -3.971965    1.083995
H      3.487756   -2.410780    1.657460
H      2.232590   -2.425673    0.354563
H      0.524753   -3.264236    1.954518
H      1.760684   -3.422742    3.229960
H      2.240831    0.223509    3.662941
H      3.055623   -1.356252    3.862863
H      1.190858   -2.130208    5.376587
H      0.424838   -0.499524    5.234473
H      2.049360   -0.670062    6.000018
H      3.819849    0.030151    0.466310
H      4.727488    1.739302    2.000722
H      1.139092    3.955178    1.796254
H      0.363440   -1.296908   -3.118153
H     -1.329399   -1.718900   -3.318622
H      1.035769    0.938068   -3.722981
H      0.466002    3.253948   -4.345659
H     -1.875547    4.050230   -4.187820
H     -3.656962    2.517587   -3.400721
H     -3.107071    0.198233   -2.764312
H     -3.175031   -2.354058   -2.242925
H     -4.881416   -3.187308   -0.651732
H     -4.521466   -2.994132    1.800006
H     -2.432075   -1.949308    2.682381
