56

C      3.907206   -2.771573    2.844592
C      3.552135   -1.333231    3.204251
N      2.635986   -0.763980    2.205328
C      3.094308    0.339638    1.346559
C      2.581951    1.675204    1.872893
C      1.252337   -1.177058    2.194443
O      0.709105   -1.574798    3.260634
C      0.443772   -1.140651    0.960636
C     -0.860315   -0.663385    0.824321
C     -1.628552   -0.010330    1.908409
O     -1.049370    0.857076    2.615147
C     -3.018162   -0.416902    2.233561
C     -3.403888   -1.756024    2.043129
C     -4.701374   -2.158872    2.358298
N     -5.591132   -1.262911    2.855752
C     -5.254320    0.036380    3.061361
C     -3.965374    0.491396    2.761818
Br    -3.596183    2.354913    3.043715
N     -1.292266   -0.818640   -0.459770
C     -2.533762   -0.289057   -1.043769
C     -2.474077    1.212486   -1.147172
C     -1.421893    1.834980   -1.840825
C     -1.366805    3.228862   -1.934982
C     -2.365126    4.010523   -1.347911
C     -3.423662    3.399148   -0.670621
C     -3.482586    2.005529   -0.574243
C     -0.269663   -1.409445   -1.123383
C     -0.206465   -1.775752   -2.475096
C      0.964513   -2.398904   -2.940673
C      2.040554   -2.646304   -2.064531
C      1.960637   -2.263304   -0.716165
C      0.794477   -1.630386   -0.281575
H      4.591520   -3.190157    3.612270
H      2.990951   -3.397546    2.804206
H      4.415647   -2.801523    1.858040
H      4.490822   -0.740587    3.267511
H      3.084930   -1.302280    4.212073
H      4.204579    0.371005    1.307579
H      2.747610    0.199162    0.303681
H      2.972858    2.500356    1.241224
H      1.473076    1.701107    1.842416
H      2.924436    1.829087    2.917790
H     -2.705013   -2.488523    1.658261
H     -5.000808   -3.187736    2.209816
H     -5.994406    0.720050    3.456024
H     -2.713512   -0.707770   -2.052908
H     -3.400964   -0.612155   -0.434639
H     -0.643134    1.243095   -2.304975
H     -0.550468    3.702967   -2.464682
H     -2.320912    5.089439   -1.421195
H     -4.199634    4.005121   -0.220454
H     -4.312487    1.547505   -0.050776
H     -1.023421   -1.598736   -3.158921
H      1.038709   -2.695363   -3.978917
H      2.934294   -3.132595   -2.433181
H      2.784288   -2.451988   -0.041791
