22

C      3.316217   -1.575867    1.476557
C      1.917641   -1.245805    1.046653
C      1.602955    0.046163    0.596465
C      0.308139    0.344947    0.160609
C     -0.679130   -0.648437    0.159187
C     -2.011237   -0.341170   -0.290546
C     -3.127442   -0.084666   -0.666826
C     -4.459493    0.219369   -1.114441
O     -4.650704    1.227844   -1.844448
C     -5.605929   -0.656140   -0.712299
F     -6.788211   -0.185861   -1.256581
F     -5.719267   -0.668077    0.665831
F     -5.385536   -1.945131   -1.162217
C     -0.365202   -1.943367    0.590551
C      0.929450   -2.242820    1.026482
H      3.803810   -0.689262    1.935210
H      3.312977   -2.393235    2.228966
H      3.907210   -1.898380    0.593992
H      2.359124    0.821505    0.583401
H      0.078102    1.348076   -0.178232
H     -1.119432   -2.721308    0.586466
H      1.160681   -3.250783    1.348502
