19

O      3.156001   -1.812540    1.092410
C      2.067571   -2.212133    0.601398
C      0.976596   -1.283610    0.466236
C      0.061548   -0.507043    0.352180
C     -1.031787    0.418666    0.215154
C     -0.910551    1.726763    0.703886
C     -1.974221    2.625258    0.569807
C     -3.159569    2.220035   -0.051805
C     -3.283133    0.915143   -0.540258
F     -4.432867    0.523194   -1.142512
C     -2.220717    0.014231   -0.407631
C      1.929750   -3.640363    0.168912
F      2.143569   -4.471006    1.253170
F      0.666634   -3.885537   -0.342354
F      2.869652   -3.917413   -0.806322
H      0.003540    2.050530    1.187079
H     -1.879779    3.635207    0.947438
H     -3.981109    2.917328   -0.154151
H     -2.324606   -0.994792   -0.788484
