19

O     -2.974919    0.394267    2.183621
C     -1.734075    0.609345    2.162657
C     -1.035737    0.587662    0.906068
C     -0.448265    0.570050   -0.146484
C      0.254390    0.549469   -1.402262
C      1.604204    0.923221   -1.457975
C      2.286086    0.902765   -2.679135
C      1.622555    0.509639   -3.845683
C      0.275511    0.136392   -3.792820
F     -0.366924   -0.244366   -4.924421
C     -0.409170    0.155887   -2.572641
C     -0.988934    0.884414    3.432070
F     -1.851336    0.861738    4.514185
F     -0.392119    2.129685    3.359232
F     -0.013099   -0.078135    3.614904
H      2.127298    1.229314   -0.559901
H      3.328388    1.191408   -2.721270
H      2.152653    0.494692   -4.789287
H     -1.452466   -0.134832   -2.540304
