20

C     -2.119659   -1.691780    0.150950
C     -1.150159   -0.714505   -0.436874
O     -0.906614   -0.754368   -1.672629
C     -0.477379    0.291071    0.403572
C     -0.643946    0.458130    1.781730
C      0.136129    1.501983    2.290669
C      0.190972    1.915797    3.624451
C      1.032960    2.988053    3.966175
C      1.805882    3.631298    2.979466
C      1.743716    3.208118    1.642568
C      0.902116    2.143624    1.328712
S      0.632466    1.436178   -0.168822
H     -2.520123   -2.365582   -0.636170
H     -1.610266   -2.308054    0.921081
H     -2.966812   -1.145673    0.616218
H     -1.300844   -0.148451    2.391948
H     -0.402437    1.422467    4.383970
H      1.087799    3.321687    4.994251
H      2.450957    4.455967    3.253379
H      2.333869    3.696310    0.877934
