51

C     -1.962096    1.182351   -5.650752
O     -1.484079    1.586000   -4.369537
C     -0.287124    1.134745   -3.787522
C      0.044298    1.592303   -2.502129
O     -0.847374    2.460947   -1.852104
C     -0.678224    2.937331   -0.520811
C      1.238618    1.158902   -1.894972
C      2.080921    0.245149   -2.546669
C      3.292915   -0.302016   -1.840918
C      2.921413   -1.451687   -0.946259
O      3.395087   -2.597717   -1.166836
C      2.084938   -1.230215    0.245565
C      2.729301   -0.849090    1.432555
C      1.989590   -0.490344    2.558753
C      0.597699   -0.474949    2.502521
C     -0.066598   -0.855545    1.328640
C      0.666906   -1.271984    0.198666
O     -0.046132   -1.690062   -0.939072
C      0.283100   -2.837049   -1.716808
C     -1.541511   -0.858636    1.334813
C     -2.225504   -0.404466    2.388678
C     -1.535452    0.229967    3.582923
C     -2.189571   -0.274329    4.872756
C     -1.675193    1.753961    3.490616
O     -0.139781   -0.098826    3.629630
C      1.741210   -0.210698   -3.827248
C      0.572574    0.235519   -4.447960
H     -2.128582    0.083716   -5.669061
H     -1.235207    1.473848   -6.440076
H     -2.929091    1.688660   -5.853540
H     -1.550800    3.565560   -0.245838
H     -0.617852    2.081259    0.183998
H      0.243244    3.554790   -0.451560
H      1.504900    1.498878   -0.902723
H      4.052967   -0.631631   -2.584050
H      3.767223    0.497349   -1.229928
H      3.811182   -0.809347    1.478380
H      2.499315   -0.198175    3.468261
H      0.579669   -3.680101   -1.061397
H      1.091910   -2.607988   -2.431354
H     -0.609810   -3.146461   -2.295960
H     -2.090009   -1.239689    0.481916
H     -3.308262   -0.406345    2.345441
H     -1.685299    0.167611    5.759700
H     -2.101373   -1.380619    4.938650
H     -3.266748   -0.000540    4.903149
H     -2.745427    2.052250    3.468782
H     -1.183647    2.128357    2.568847
H     -1.187065    2.239627    4.363174
H      2.374024   -0.924934   -4.340459
H      0.337819   -0.137341   -5.435947
