25

C     -2.175378   -0.356693   -1.982645
N     -3.056113   -0.571918   -3.103454
C     -3.316724   -1.910739   -2.492126
O     -3.786421   -3.009601   -2.886416
C     -2.873641   -1.329627   -1.192094
O     -1.926347   -1.831519   -0.253961
C     -1.359774   -0.834204    0.590026
C     -0.708714   -1.179980    1.773065
C     -0.210397   -0.178256    2.612780
C     -0.348145    1.178745    2.281334
O      0.167612    2.132421    3.171745
C      0.102739    3.540424    2.969560
C     -0.986182    1.541005    1.076671
C     -1.481242    0.548854    0.223417
C     -2.082948    0.855588   -1.117859
O     -2.372863    2.015704   -1.513159
H     -1.138682   -0.672605   -2.269035
H     -3.194028   -0.137841   -4.042423
H     -3.778957   -0.941087   -0.661155
H     -0.606184   -2.220690    2.052207
H      0.283693   -0.457463    3.534801
H      0.581689    4.052483    3.829063
H     -0.956223    3.868637    2.905193
H      0.646691    3.818474    2.042189
H     -1.081712    2.579738    0.790840
