26

C      0.399745    0.752893    1.060300
C      1.026028    1.560493    2.202040
C      1.352341    2.824828    1.502560
O      2.036206    3.712992    1.985857
C      0.748372    2.889663    0.148888
N     -0.144839    1.727220    0.103396
C     -0.305640    1.129947   -1.236715
C     -0.934495   -0.292082   -1.143800
O     -1.813446   -0.521875   -2.216465
C     -1.643614   -0.525306    0.221799
O     -2.205343   -1.812330    0.285798
C     -0.697186   -0.275640    1.435115
O     -1.471070    0.174746    2.519405
H      1.237296    0.191583    0.576171
H      1.942617    1.066169    2.590343
H      0.318426    1.780865    3.027472
H      0.156358    3.821747    0.032061
H      1.553394    2.840171   -0.617483
H      0.673040    1.054154   -1.762433
H     -0.958140    1.798933   -1.838333
H     -0.108856   -1.033500   -1.224852
H     -2.579942    0.100922   -2.113551
H     -2.481248    0.205555    0.282673
H     -1.469043   -2.466573    0.160575
H     -0.186533   -1.233196    1.699513
H     -1.063323   -0.195774    3.345536
