26

C     -0.330513   -0.296000   -0.960213
C     -0.295661    0.722059   -2.104732
C     -1.072398    1.834745   -1.509908
O     -1.457931    2.807820   -2.138047
C     -1.323566    1.632123   -0.061485
N     -0.494754    0.471862    0.281344
C     -1.034840   -0.372621    1.364209
C     -0.340632   -1.766378    1.393046
O     -0.146038   -2.182245    2.719879
C      1.019583   -1.741027    0.655519
O      1.587654   -3.024921    0.682705
C      0.880322   -1.251009   -0.817492
O      2.077741   -0.615669   -1.191012
H     -1.240059   -0.925382   -1.126510
H     -0.793941    0.323330   -3.014667
H      0.725391    1.084994   -2.342219
H     -2.408022    1.445956    0.103053
H     -0.987564    2.517223    0.518690
H     -0.865111    0.151770    2.329681
H     -2.131761   -0.523631    1.248018
H     -0.993167   -2.504117    0.868183
H     -1.041568   -2.418366    3.078008
H      1.680032   -1.035082    1.214593
H      2.545754   -2.918047    0.445014
H      0.694156   -2.138059   -1.470826
H      2.231705   -0.820459   -2.150349
