38

C     -4.498741   -0.298860    1.946088
N     -3.150140    0.008954    1.482112
C     -1.981826   -0.752775    1.777712
O     -1.938702   -1.606580    2.704661
C     -0.821123   -0.442394    0.858350
C      0.318435    0.216591    1.676752
C      1.667442    0.231217    0.943753
C      2.080847   -1.178311    0.481180
C      1.024671   -1.753535   -0.476718
C     -0.362896   -1.681002    0.105992
O     -1.154745   -2.580410   -0.139251
O      2.196705   -2.027851    1.605793
C      3.550804   -2.322210    1.725228
C      4.168702   -1.987065    0.404641
O      3.309125   -1.081436   -0.209577
C     -1.502719    0.536047   -0.071654
C     -2.813123    0.752838    0.320682
C     -3.663003    1.592105   -0.405965
C     -3.159364    2.226035   -1.551128
C     -1.831137    2.006691   -1.957811
C     -0.994831    1.153421   -1.221642
H     -5.111767    0.625459    1.974810
H     -4.969465   -1.035479    1.262028
H     -4.462592   -0.722296    2.971708
H      0.041969    1.259039    1.950270
H      0.458094   -0.336209    2.632496
H      2.442945    0.629604    1.633931
H      1.622538    0.921154    0.076161
H      1.280987   -2.811221   -0.707147
H      1.038520   -1.192740   -1.435237
H      3.687382   -3.397326    1.968863
H      3.991601   -1.698413    2.533343
H      5.172383   -1.530140    0.537997
H      4.255305   -2.896973   -0.228567
H     -4.687833    1.754061   -0.100740
H     -3.798142    2.881697   -2.128497
H     -1.454046    2.492403   -2.848420
H      0.015564    0.974058   -1.556380
