55

C      3.787074   -1.213878    4.448807
C      3.223141    0.201387    4.384704
O      2.938495    0.572780    3.035914
C      1.843184    0.126405    2.278558
C      1.783865    0.500446    0.925379
C      0.708659    0.071233    0.138994
C     -0.305719   -0.689021    0.691434
C     -0.273342   -1.078024    2.032219
C      0.806555   -0.668806    2.827058
N     -1.325959   -0.987008   -0.253292
C     -2.710539   -1.349295    0.053260
C     -3.490742   -0.126232    0.457930
C     -4.082177    0.690822   -0.520477
C     -4.761891    1.855230   -0.150172
C     -4.851110    2.215484    1.197161
C     -4.260979    1.411535    2.176378
C     -3.581219    0.245877    1.810084
C     -0.898693   -0.349359   -1.456063
O     -1.579840   -0.365729   -2.517039
C      0.431141    0.356258   -1.318948
C      1.466572   -0.308755   -2.262053
C      2.721777    0.544936   -2.495464
C      2.368624    1.962848   -2.982653
C      1.488097    2.677447   -1.944305
C      0.289343    1.849469   -1.562887
O     -0.772927    2.412706   -1.338630
O      1.665430    1.876038   -4.206747
C      2.356390    2.682155   -5.105346
C      3.704898    2.920779   -4.502594
O      3.565159    2.697371   -3.136574
H      4.046710   -1.464391    5.498666
H      4.703610   -1.283234    3.825588
H      3.044255   -1.950811    4.080493
H      2.320194    0.301163    5.023405
H      3.988711    0.899790    4.782927
H      2.562368    1.121987    0.509632
H     -1.057169   -1.688323    2.458691
H      0.820148   -0.970730    3.864379
H     -2.734641   -2.112798    0.859256
H     -3.177286   -1.819493   -0.839283
H     -4.017354    0.427563   -1.568570
H     -5.217362    2.479556   -0.908458
H     -5.377095    3.117539    1.482160
H     -4.329207    1.692150    3.219697
H     -3.128434   -0.364341    2.580520
H      1.770872   -1.300535   -1.859907
H      0.998864   -0.498421   -3.253722
H      3.325808    0.598373   -1.566615
H      3.353501    0.044676   -3.261814
H      1.154898    3.654439   -2.359422
H      2.080366    2.890394   -1.028993
H      2.442662    2.171011   -6.087757
H      1.809332    3.641824   -5.231962
H      4.450520    2.207073   -4.916512
H      4.045385    3.962150   -4.686012
