27

C     -4.444786   -0.055713    3.893680
O     -3.100242   -0.408285    3.592302
C     -2.229863    0.452275    2.916742
O     -2.613197    1.597256    2.551524
C     -0.833024    0.004587    2.622463
C     -0.838945   -1.116705    1.621745
O     -1.141721   -2.274422    2.018174
C     -0.538615   -0.882485    0.185928
C     -0.980446    0.301900   -0.431354
C     -0.732584    0.539713   -1.784806
C     -0.031889   -0.404112   -2.553734
O      0.241263   -0.211908   -3.916309
C     -0.152804    0.935781   -4.661312
C      0.415802   -1.580072   -1.945856
C      0.172421   -1.828563   -0.589469
Br     0.904618   -3.441523    0.152763
H     -4.465276    0.844623    4.543645
H     -5.004228    0.145454    2.955550
H     -4.930986   -0.896900    4.428923
H     -0.221484    0.855455    2.250831
H     -0.364564   -0.349472    3.565451
H     -1.537162    1.042233    0.126913
H     -1.094027    1.459595   -2.223819
H      0.192657    0.823828   -5.709392
H      0.309971    1.848444   -4.229899
H     -1.259259    1.030585   -4.659770
H      0.966365   -2.304242   -2.533398
