23

C     -2.425357    1.306053   -2.996713
O     -1.752291    1.507587   -1.760164
C     -2.432798    1.664530   -0.549389
O     -3.693719    1.640320   -0.512977
C     -1.657193    1.846181    0.716805
C     -1.689470    0.590045    1.541862
O     -2.741103    0.318343    2.181676
C     -0.534939   -0.343276    1.588874
C     -0.179063   -1.027366    2.777192
Br    -1.075045   -0.739155    4.451163
C      0.903172   -1.916815    2.774086
C      1.637840   -2.134876    1.607694
F      2.683933   -2.997387    1.616115
C      1.298995   -1.460957    0.434889
C      0.222545   -0.571228    0.423642
H     -1.675347    1.208747   -3.808179
H     -3.030554    0.375843   -2.952571
H     -3.083990    2.172758   -3.216914
H     -2.102983    2.679614    1.301245
H     -0.609811    2.133840    0.482639
H      1.181281   -2.435143    3.683018
H      1.868351   -1.630129   -0.470108
H     -0.026248   -0.076556   -0.504997
