23

C      0.070124    4.004889    1.344759
O      0.803162    2.818595    1.623139
C      0.605750    2.066690    2.784765
O     -0.238912    2.427266    3.649601
C      1.368046    0.794358    2.976604
C      0.560091   -0.381117    2.498794
O      0.325187   -1.320550    3.305646
C      0.056222   -0.466921    1.104334
C      0.880002   -0.053985    0.039899
C      0.430917   -0.131213   -1.280189
C     -0.846113   -0.620226   -1.558464
Cl    -1.408050   -0.714014   -3.217546
C     -1.678169   -1.029166   -0.513940
C     -1.239860   -0.956011    0.814273
Br    -2.485270   -1.463440    2.184717
H     -1.015022    3.775485    1.286548
H      0.252819    4.760082    2.138307
H      0.402653    4.418357    0.370642
H      2.332991    0.843508    2.431009
H      1.608751    0.675864    4.055792
H      1.880193    0.315119    0.222832
H      1.079202    0.186969   -2.086770
H     -2.672880   -1.396056   -0.733862
