22

C     -3.710190    0.459819    0.627755
C     -2.593850   -0.462335    0.238025
O     -2.889291   -1.591432   -0.240157
C     -1.165060   -0.080358    0.400568
C     -0.796562    1.173051    0.928466
C      0.551134    1.514941    1.074065
C      1.553564    0.612320    0.701324
S      3.250315    1.052761    0.869853
N      3.794865    1.829308   -0.575072
O      4.074012   -0.179922    1.117292
O      3.420346    1.986555    2.035326
C      1.198295   -0.631825    0.168245
C     -0.148099   -0.977327    0.021141
H     -4.695030   -0.014361    0.429150
H     -3.647499    1.398104    0.037810
H     -3.645658    0.693269    1.711125
H     -1.543017    1.895629    1.229286
H      0.811402    2.486119    1.475516
H      3.620200    1.165314   -1.362415
H      3.171570    2.652814   -0.732065
H      1.962780   -1.335065   -0.136797
H     -0.391516   -1.948022   -0.392386
