21

C      2.790455    1.415782   -3.767724
O      2.309913    1.314188   -2.432682
C      1.032824    0.833622   -2.125746
O      0.250555    0.467316   -3.044981
C      0.604322    0.756924   -0.721438
N      1.411713    1.134667    0.222315
N      1.021990    1.069600    1.571701
C     -0.281989    0.581504    1.924941
C     -0.704698    0.507584    3.337046
C     -2.063596   -0.000842    3.708647
O      0.084715    0.876127    4.247646
N     -1.089138    0.203751    0.979583
N     -0.699488    0.268795   -0.369728
H      2.142401    2.101237   -4.353972
H      3.822862    1.821304   -3.753707
H      2.804167    0.412674   -4.244268
H      1.693465    1.380600    2.308046
H     -2.842984    0.638009    3.242901
H     -2.183218   -1.045442    3.352278
H     -2.199605    0.017476    4.811010
H     -1.370416   -0.042029   -1.106664
