56

C     -0.335160   -0.770709    3.257913
O      0.728692    0.082954    3.677996
C      1.300815    0.821274    2.608692
C      2.458412    1.671527    3.136586
C      3.175660    2.367238    1.974470
C      3.535121    1.347135    0.867853
C      4.147394    2.053800   -0.351781
C      5.504501    2.613510   -0.050121
O      5.625404    3.828455    0.275941
O      6.621422    1.773666   -0.102481
C      7.936689    2.230503    0.191892
O      2.374126    0.648199    0.440607
C      1.843620   -0.112531    1.511069
C      0.721236   -1.015221    0.998419
O     -0.351545   -0.276103    0.439096
C     -1.461810   -0.751303    1.186429
C     -2.794338   -0.632138    0.431938
C     -2.728788   -1.310559   -0.942083
O     -3.977835   -1.198914   -1.598442
C     -4.724925   -2.389196   -1.450428
C     -6.062232   -2.208834   -2.111373
C     -7.139617   -1.660658   -1.394303
C     -8.377956   -1.474902   -2.017441
C     -8.547081   -1.825600   -3.360595
C     -7.474785   -2.355479   -4.084943
C     -6.236344   -2.545439   -3.465226
O     -1.160330   -2.074945    1.531913
C      0.055876   -1.772937    2.139242
C     -1.434679   -0.085909    2.523605
O     -2.131034    0.837766    2.920559
H     -0.748796   -1.309046    4.137804
H      0.552607    1.527779    2.179447
H      3.180257    1.029011    3.688553
H      2.069041    2.438646    3.840491
H      4.097428    2.852953    2.363354
H      2.511651    3.157633    1.558512
H      4.295067    0.626602    1.255218
H      4.250531    1.322623   -1.184072
H      3.471359    2.863525   -0.706246
H      7.982480    2.615693    1.234851
H      8.224673    3.035213   -0.519547
H      8.649053    1.387405    0.084441
H      2.625474   -0.784766    1.941190
H      1.118262   -1.725758    0.239313
H     -3.592274   -1.110673    1.037927
H     -3.052441    0.440582    0.297155
H     -1.974037   -0.780832   -1.564647
H     -2.368311   -2.364485   -0.838398
H     -4.875861   -2.632685   -0.372730
H     -4.194399   -3.245886   -1.928495
H     -7.020144   -1.380163   -0.354217
H     -9.208812   -1.063719   -1.457807
H     -9.509505   -1.690225   -3.839019
H     -7.606467   -2.623849   -5.126547
H     -5.413142   -2.955502   -4.039267
H      0.607131   -2.672592    2.488871
