59

C      0.719995    3.958874   -0.124555
C      1.324002    3.565399    1.218618
C      1.325759    2.069091    1.396223
O      2.174781    1.418716    0.804860
C      0.370678    1.387852    2.366594
C      0.551570   -0.148323    2.460297
C      0.051139   -0.944132    1.219548
N      1.181409   -1.162495    0.288255
C      1.692031   -2.548737    0.297431
C      2.456131   -2.820123    1.565374
C      1.887249   -3.592349    2.592310
C      2.587140   -3.802655    3.784272
C      3.854731   -3.241202    3.961196
C      4.424137   -2.466657    2.946628
C      3.727381   -2.253099    1.753473
C      0.737328   -0.766187   -1.056147
C     -0.410455    0.206554   -0.885004
C     -1.063831   -0.220906    0.424515
C     -1.723762    0.941900    1.148124
C     -1.086531    1.695588    2.070281
C     -1.809256    2.639212    2.964183
O     -1.187848    3.605518    3.485126
O     -3.149812    2.421075    3.298089
C     -3.871744    3.271906    4.180164
N     -3.143116    0.913997    0.966198
C     -3.425816   -0.351902    0.402135
C     -4.693376   -0.875313    0.150529
C     -4.784951   -2.166896   -0.391820
C     -3.618050   -2.903553   -0.673516
C     -2.351994   -2.352922   -0.416121
C     -2.279295   -1.070254    0.138469
H     -0.337983    3.626209   -0.181836
H      1.296852    3.502934   -0.957427
H      0.749178    5.062978   -0.235736
H      0.755004    4.058540    2.029367
H      2.368143    3.941740    1.277335
H      0.625985    1.783907    3.374475
H     -0.026032   -0.499164    3.344903
H      1.613956   -0.387647    2.681150
H     -0.348352   -1.914011    1.597926
H      2.389727   -2.698653   -0.557262
H      0.864136   -3.281302    0.164666
H      0.902019   -4.025647    2.473169
H      2.145153   -4.397911    4.572872
H      4.394454   -3.403726    4.885176
H      5.403653   -2.028085    3.086718
H      4.173254   -1.641180    0.978956
H      0.381297   -1.640664   -1.648015
H      1.575762   -0.284873   -1.603751
H     -0.009046    1.236812   -0.813941
H     -1.102508    0.170654   -1.756143
H     -3.393627    3.272586    5.183080
H     -3.897354    4.306037    3.774701
H     -4.911938    2.897259    4.277249
H     -3.839400    1.668686    1.149768
H     -5.584694   -0.303003    0.372104
H     -5.756626   -2.597808   -0.595349
H     -3.697006   -3.896232   -1.097184
H     -1.456554   -2.912310   -0.647383
