59

C      4.287888   -1.351230    2.772776
C      3.425419   -1.630758    1.546024
C      2.076217   -2.188834    1.931287
O      2.017911   -3.277569    2.483585
C      0.788575   -1.462751    1.584469
C      0.544503   -1.584773    0.071532
C     -0.411387   -0.536795   -0.526281
N     -0.214663   -0.626809   -1.986149
C     -1.437124   -0.913648   -2.758298
C     -1.697280   -2.395385   -2.743750
C     -2.644309   -2.946595   -1.863145
C     -2.847225   -4.329499   -1.823258
C     -2.102786   -5.171140   -2.654747
C     -1.151137   -4.631243   -3.524253
C     -0.944161   -3.248945   -3.566477
C      0.536293    0.564054   -2.419305
C      1.049225    1.254888   -1.158067
C      0.006401    0.882709   -0.111209
C      0.494743    1.012386    1.329884
C      0.789786   -0.043131    2.134840
C      0.877261    0.081883    3.627296
O      0.506632    1.133738    4.225588
O      1.323647   -1.012172    4.384316
C      1.371661   -1.000209    5.806411
N      0.108102    2.287530    1.850202
C     -0.914191    2.756668    0.998921
C     -1.690321    3.895212    1.212391
C     -2.665784    4.223276    0.262567
C     -2.829314    3.426743   -0.884186
C     -2.024705    2.293763   -1.083952
C     -1.085785    1.943529   -0.102746
H      5.279529   -0.973291    2.448639
H      3.813527   -0.581715    3.420364
H      4.438482   -2.278086    3.365407
H      3.307966   -0.688177    0.970567
H      3.944878   -2.363372    0.894625
H     -0.059030   -1.986540    2.082098
H      1.518586   -1.518801   -0.464845
H      0.141926   -2.599446   -0.147580
H     -1.455167   -0.753604   -0.204927
H     -2.317535   -0.376647   -2.351232
H     -1.315137   -0.590299   -3.816808
H     -3.222017   -2.307908   -1.206189
H     -3.577386   -4.749478   -1.143749
H     -2.260587   -6.241552   -2.622405
H     -0.571084   -5.284368   -4.162604
H     -0.196780   -2.843102   -4.237209
H      1.388730    0.254215   -3.060336
H     -0.100225    1.267834   -2.998614
H      1.155026    2.352946   -1.306344
H      2.042371    0.835958   -0.880366
H      1.995819   -0.149940    6.160257
H      1.821861   -1.952023    6.163974
H      0.342308   -0.910363    6.217488
H      0.554962    2.836321    2.617027
H     -1.544957    4.510533    2.091373
H     -3.283986    5.100044    0.404355
H     -3.565074    3.701656   -1.627854
H     -2.124202    1.742456   -1.999546
