67

C      2.291595    5.845591    2.006723
O      1.981250    5.158463    3.213665
C      1.172770    4.019263    3.246060
N      0.942018    3.398253    4.429651
C      0.170340    2.283316    4.499078
C     -0.407026    1.747242    3.339030
C     -1.226588    0.474119    3.415839
C     -2.671281    0.668747    2.942578
C     -2.843477   -0.499797    2.086112
O     -3.902901   -0.819620    1.569884
C     -1.588490   -1.272261    1.968973
C     -1.167250   -1.451167    0.509640
O      0.029021   -2.197168    0.468579
Si     0.874625   -1.925351   -1.026069
C     -0.356898   -1.735573   -2.426787
C     -1.132898   -2.828912   -2.842539
C     -2.080840   -2.679821   -3.859273
C     -2.279927   -1.431419   -4.452887
C     -1.540164   -0.328650   -4.020912
C     -0.590116   -0.476585   -3.006359
C      1.893782   -0.375890   -0.833674
C      2.113616    0.166803    0.442230
C      2.915962    1.301930    0.596481
C      3.515014    1.893136   -0.518537
C      3.321524    1.342270   -1.788939
C      2.524567    0.204031   -1.945516
C      2.079771   -3.388287   -1.293835
C      2.409537   -3.533547   -2.788751
C      3.381332   -3.127672   -0.511674
C      1.451760   -4.694793   -0.772467
O     -0.593838   -0.545890    2.659676
C     -0.158744    2.409164    2.120614
O     -0.711545    1.926831    0.930292
C     -0.564020    2.593835   -0.317688
N      0.620018    3.524942    2.107294
H      2.945361    6.712069    2.238125
H      2.827014    5.167003    1.309504
H      1.358794    6.213990    1.529309
H      0.016259    1.811421    5.460725
H     -1.264997    0.121349    4.471458
H     -3.380773    0.633854    3.797768
H     -2.829364    1.598463    2.355928
H     -1.721748   -2.266571    2.448298
H     -1.962872   -2.007392   -0.033925
H     -1.059762   -0.438837    0.056728
H     -1.022187   -3.794571   -2.377513
H     -2.668076   -3.530649   -4.179923
H     -3.016940   -1.313556   -5.237165
H     -1.709531    0.643818   -4.466132
H     -0.055238    0.399181   -2.671261
H      1.673619   -0.287901    1.319045
H      3.075289    1.721984    1.581363
H      4.133274    2.773474   -0.397665
H      3.794487    1.794042   -2.651580
H      2.393689   -0.217122   -2.934515
H      3.121227   -4.372318   -2.952235
H      1.493116   -3.743948   -3.379774
H      2.874427   -2.605804   -3.183034
H      3.918502   -2.240624   -0.911252
H      4.068196   -3.998466   -0.592836
H      3.163813   -2.954917    0.564926
H      0.537252   -4.961909   -1.335206
H      2.164868   -5.541012   -0.881135
H      1.190900   -4.604712    0.303941
H     -1.009240    3.609613   -0.259396
H      0.510449    2.669459   -0.587083
H     -1.092505    2.016244   -1.103326
