30

N     -5.546557   -2.949167   -2.330606
C     -4.339591   -2.190468   -2.243458
C     -3.321905   -2.470855   -1.321123
C     -3.116122   -3.386569   -0.289822
I     -4.370560   -4.923573    0.434330
N     -1.908580   -3.133440    0.274886
N     -1.350981   -2.112846   -0.363819
C     -0.070422   -1.511737    0.003723
C     -0.263708   -0.334977    0.926907
O     -1.388651   -0.160291    1.472266
C      0.848307    0.604141    1.233543
C      0.589070    1.795719    1.939393
C      1.624843    2.687199    2.234885
C      2.930981    2.401914    1.833760
C      3.204661    1.223483    1.137376
C      2.173306    0.327753    0.838239
C     -2.196775   -1.699914   -1.318879
N     -2.018346   -0.658226   -2.165948
C     -3.007673   -0.380776   -3.062859
N     -4.146766   -1.139632   -3.095792
H     -6.279745   -2.675055   -3.021611
H     -5.718710   -3.796628   -1.754901
H      0.454263   -1.182294   -0.918995
H      0.561647   -2.271732    0.511087
H     -0.415516    2.043044    2.259097
H      1.413696    3.600882    2.775447
H      3.731365    3.093200    2.063992
H      4.218686    1.001677    0.830438
H      2.422245   -0.581041    0.307316
H     -2.891666    0.444054   -3.752248
