28

O      0.263227   -0.521938   -1.528815
C     -0.888854   -0.174012   -1.319112
C     -1.946130   -1.231821   -1.166332
C     -3.337965   -0.634180   -0.993663
S     -3.373349    0.466034    0.455439
C     -2.127655    1.704560   -0.103684
S     -1.167422    2.310497    1.343283
C     -0.257840    0.801454    1.702667
C     -0.816310   -0.183076    2.528194
C     -0.099242   -1.348341    2.816170
C      1.190748   -1.524166    2.299146
C      1.928771   -2.724320    2.593362
N      2.522117   -3.689330    2.829812
C      1.764167   -0.524486    1.502897
C      1.044553    0.639061    1.213735
C     -1.224105    1.300443   -1.300050
O     -1.862822    1.644049   -2.503253
H     -1.702558   -1.859572   -0.281735
H     -1.942801   -1.882324   -2.067087
H     -3.653892   -0.083012   -1.904092
H     -4.066092   -1.455610   -0.827153
H     -2.719080    2.587223   -0.428623
H     -1.806160   -0.049642    2.944769
H     -0.547939   -2.108633    3.444116
H      2.765088   -0.644425    1.106124
H      1.496213    1.408274    0.600524
H     -0.278647    1.887760   -1.228633
H     -1.170775    1.623172   -3.215567
