66

C     -3.932871   -1.799995    1.972999
C     -2.925901   -0.666438    2.252770
C     -1.648475   -1.218849    2.915141
C     -3.582452    0.345268    3.203898
O     -2.601649    0.033178    1.040952
C     -2.021761   -0.526647   -0.108432
O     -1.731318   -1.750022   -0.143539
N     -1.760042    0.309987   -1.252949
C     -2.321372    1.631029   -1.416886
C     -1.906257    2.601620   -0.328343
O     -2.707945    3.520484   -0.007129
C     -0.638757    2.474266    0.414230
C      0.566350    2.215294   -0.250865
C      1.729240    1.952868    0.473838
C      1.701535    1.946022    1.880628
O      2.813910    1.565327    2.648276
C      3.988609    0.935272    2.137034
C      3.663562   -0.369630    1.452781
C      2.658643   -1.217151    1.957241
C      2.350177   -2.413233    1.303854
C      3.063698   -2.790406    0.160708
C      4.085171   -1.969664   -0.328789
C      4.387059   -0.767125    0.314782
C      0.516800    2.300533    2.543214
Cl     0.457620    2.347290    4.300716
C     -0.643866    2.569848    1.812295
C     -1.846771    2.052923   -2.799514
O     -1.059577    1.014307   -3.353548
C     -1.186192   -0.131382   -2.525882
C      0.218133   -0.748890   -2.325719
C      0.877977   -1.115399   -3.671131
C     -0.128643   -1.553822   -4.753658
C     -1.402410   -2.151829   -4.145211
C     -2.135010   -1.149595   -3.227962
H     -4.312515   -2.236040    2.923513
H     -4.796497   -1.408029    1.391148
H     -3.468340   -2.623739    1.394475
H     -1.165167   -1.992047    2.282701
H     -0.918766   -0.397337    3.080359
H     -1.887813   -1.683053    3.896403
H     -2.867242    1.149124    3.473915
H     -3.918514   -0.153609    4.142205
H     -4.467561    0.809611    2.713687
H     -3.432453    1.544042   -1.420982
H      0.607816    2.209156   -1.329870
H      2.636674    1.734496   -0.071409
H      4.503964    1.634644    1.441971
H      4.674912    0.725411    2.982036
H      2.099528   -0.944380    2.845846
H      1.561389   -3.050257    1.687179
H      2.825597   -3.716174   -0.345499
H      4.644044   -2.269728   -1.205440
H      5.177822   -0.140004   -0.080454
H     -1.558934    2.811781    2.341485
H     -1.241202    2.985722   -2.765719
H     -2.721888    2.236982   -3.464119
H      0.144293   -1.673722   -1.716541
H      0.883152   -0.054051   -1.777370
H      1.609745   -1.933501   -3.495783
H      1.452424   -0.241458   -4.048294
H      0.351160   -2.304546   -5.416064
H     -0.405649   -0.684590   -5.384982
H     -1.126775   -3.056511   -3.558346
H     -2.088034   -2.475081   -4.958704
H     -2.710377   -1.737943   -2.482405
H     -2.894461   -0.592165   -3.822492
