32

O     -2.777315   -0.766470    0.223088
C     -1.564277   -1.108819    0.166392
C     -1.214198   -2.533237    0.382993
C     -1.979583   -3.316044    1.266254
C     -1.668886   -4.664379    1.468393
C     -0.600311   -5.247498    0.783631
C      0.155885   -4.484912   -0.109374
C     -0.150164   -3.135963   -0.314567
C     -0.533223   -0.074998   -0.087960
C     -0.884970    1.166031   -0.644670
C      0.102609    2.135674   -0.856258
C      1.451937    1.849478   -0.494870
C      1.750455    0.603009    0.064943
N      0.764252   -0.312308    0.254539
C      2.461026    2.814072   -0.700468
C      2.088476    4.032566   -1.260420
C      0.804190    4.306763   -1.604926
C     -0.224725    3.387415   -1.420995
O      0.731941    5.581483   -2.132734
C      2.051850    6.142905   -2.119124
O      2.886068    5.121532   -1.554850
H     -2.810175   -2.881121    1.808586
H     -2.257776   -5.257540    2.156079
H     -0.362342   -6.291705    0.940082
H      0.975654   -4.941163   -0.649162
H      0.430477   -2.573631   -1.034412
H     -1.913750    1.372398   -0.916957
H      2.764312    0.355570    0.353681
H      3.493836    2.624323   -0.435369
H     -1.239487    3.636325   -1.706200
H      2.379349    6.376713   -3.153813
H      2.074982    7.051754   -1.481974
