32

O     -1.831760    1.259096   -2.458111
C     -1.821379    1.444765   -1.210197
C     -2.303102    2.742123   -0.677993
C     -2.991138    2.816114    0.548046
C     -3.452176    4.046313    1.027088
C     -3.241387    5.211058    0.285625
C     -2.574986    5.147104   -0.940179
C     -2.112594    3.919327   -1.424079
C     -1.305823    0.373733   -0.324956
C     -1.202978   -0.949375   -0.786054
C     -0.692927   -1.940825    0.060801
C     -0.277775   -1.588615    1.378675
C     -0.391048   -0.256038    1.788059
N     -0.891384    0.677743    0.937138
C      0.238828   -2.573921    2.246585
C      0.323392   -3.878458    1.768986
C     -0.071288   -4.215497    0.514439
C     -0.586632   -3.278733   -0.376961
O      0.126747   -5.568630    0.318155
C      0.679852   -6.115605    1.523323
O      0.788764   -5.003254    2.422401
H     -3.193476    1.923227    1.125412
H     -3.980087    4.095208    1.970740
H     -3.600067    6.162009    0.657798
H     -2.416948    6.049439   -1.516683
H     -1.595576    3.890460   -2.375407
H     -1.522856   -1.206184   -1.789467
H     -0.081336    0.045118    2.780975
H      0.561989   -2.335216    3.252351
H     -0.892828   -3.579203   -1.371448
H     -0.003039   -6.882999    1.944352
H      1.683414   -6.546118    1.323264
