66

C     -0.515571   -1.364039   -1.155456
C     -1.674565   -2.100554   -0.447228
O     -1.120306   -3.047674    0.457909
C     -2.142751   -3.691155    1.200850
C     -3.094484   -4.398265    0.282519
O     -3.744957   -5.402182    0.673455
C     -3.275033   -3.874336   -1.073586
C     -2.579119   -2.799369   -1.445831
O     -1.021260   -0.569451   -2.212719
C     -0.606721    0.761290   -2.012755
C      0.511155    1.117894   -3.009101
O      1.536891    0.125465   -2.986678
C      2.567466    0.070331   -3.932381
O      2.678241    0.980251   -4.800755
C      3.506462   -1.070025   -3.931697
C      3.349515   -2.114875   -3.003752
C      4.192382   -3.231071   -3.046916
C      5.197928   -3.314580   -4.013727
C      5.375122   -2.273088   -4.927613
C      4.537905   -1.153528   -4.887830
C     -0.193663    0.921586   -0.554764
O     -1.354375    1.220999    0.230427
C     -1.919934    2.496086    0.315379
O     -1.218198    3.518947    0.075683
C     -3.360510    2.634836    0.625257
C     -4.034068    3.838788    0.355047
C     -5.419617    3.931705    0.533447
C     -6.139101    2.829223    1.006023
C     -5.473585    1.635971    1.302120
C     -4.092482    1.535042    1.113228
C      0.309265   -0.458582   -0.216558
O      0.135527   -0.766252    1.170207
C      0.812996   -0.090198    2.196091
O      1.702983    0.761990    1.910175
C      0.427886   -0.313535    3.604019
C     -0.273378   -1.474419    3.973614
C     -0.694637   -1.653994    5.292635
C     -0.426195   -0.675808    6.252385
C      0.270635    0.479758    5.895612
C      0.705499    0.656549    4.578956
H      0.151860   -2.136393   -1.592207
H     -2.284352   -1.350258    0.106578
H     -2.693183   -2.963484    1.839992
H     -1.667186   -4.435774    1.875440
H     -3.964162   -4.341916   -1.766504
H     -2.734506   -2.390850   -2.436535
H     -1.466052    1.433134   -2.222889
H      0.070370    1.158390   -4.029917
H      0.942467    2.113982   -2.769898
H      2.574372   -2.068742   -2.251179
H      4.056547   -4.034865   -2.333624
H      5.834618   -4.189114   -4.056170
H      6.156811   -2.338936   -5.674176
H      4.682333   -0.366544   -5.613171
H      0.591800    1.695537   -0.398194
H     -3.496366    4.691950   -0.038756
H     -5.938904    4.854304    0.287183
H     -7.213369    2.896141    1.128951
H     -6.034777    0.784443    1.662010
H     -3.598086    0.597028    1.333641
H      1.390039   -0.539890   -0.478729
H     -0.507883   -2.230991    3.242237
H     -1.232702   -2.551708    5.568256
H     -0.759317   -0.811725    7.273550
H      0.464226    1.244114    6.637224
H      1.224430    1.568356    4.317283
