63

C     -4.540283    0.966056   -1.995607
C     -3.122404    1.485162   -1.688238
C     -3.193801    2.457184   -0.500174
C     -2.535253    2.226053   -2.904887
O     -2.264332    0.406379   -1.295468
C     -1.891285   -0.695656   -2.081620
O     -2.389372   -0.873600   -3.224751
C     -0.934260   -1.722868   -1.521362
N      0.093306   -2.128129   -2.496573
C      1.416223   -2.030650   -1.848492
C      2.252037   -0.900517   -2.452112
C      1.704260    0.371535   -2.723673
C      2.503985    1.390619   -3.247842
C      3.857681    1.160312   -3.500389
C      4.415653   -0.090226   -3.228456
C      3.620780   -1.114457   -2.706274
C      1.163098   -1.951228   -0.303105
C      1.079505   -3.415027    0.235785
O      0.952745   -3.463023    1.654675
C      1.730725   -2.659524    2.487185
C      1.819267   -2.957145    3.850696
C      2.604268   -2.163542    4.690832
C      3.298094   -1.068073    4.169941
C      3.198619   -0.755832    2.810460
C      2.405604   -1.546633    1.959555
C      2.197399   -1.186170    0.536861
O      2.766055   -0.155434    0.086493
C     -0.193160   -1.224903   -0.265223
C     -0.969709   -1.298696    1.049272
C     -0.821994   -0.250221    1.979439
C     -1.482647   -0.287938    3.209796
C     -2.298997   -1.372333    3.532747
C     -2.450725   -2.424625    2.628029
C     -1.790405   -2.394437    1.395826
H     -5.238767    1.814906   -2.160393
H     -4.552974    0.337911   -2.910020
H     -4.917284    0.355010   -1.145762
H     -3.598553    1.939724    0.396625
H     -3.846815    3.326201   -0.732337
H     -2.178140    2.834489   -0.250683
H     -3.135458    3.132307   -3.137269
H     -2.532089    1.580970   -3.807038
H     -1.489111    2.536243   -2.695338
H     -1.531594   -2.626629   -1.299664
H      0.045713   -1.592192   -3.394577
H      1.950168   -2.976775   -2.089156
H      0.661030    0.581591   -2.538887
H      2.073099    2.361351   -3.456710
H      4.475391    1.951991   -3.904199
H      5.466835   -0.265761   -3.418406
H      4.077058   -2.073045   -2.491893
H      2.012597   -3.958302   -0.031481
H      0.236193   -3.971103   -0.224444
H      1.285818   -3.807821    4.255692
H      2.676176   -2.397620    5.745101
H      3.904059   -0.453049    4.822434
H      3.724440    0.111579    2.431655
H      0.033418   -0.148002   -0.440037
H     -0.185178    0.597341    1.756472
H     -1.357484    0.523460    3.915370
H     -2.808758   -1.400049    4.487245
H     -3.074101   -3.271482    2.885532
H     -1.906305   -3.244989    0.741478
