34

C      3.268332   -1.382331    0.312277
C      1.808910   -1.408442   -0.180965
C      1.645671   -2.558948   -1.185938
C      0.841401   -1.635699    0.996507
O      1.486526   -0.192251   -0.872214
C      1.496450    1.100313   -0.327229
O      1.829655    1.297915    0.872691
N      1.119821    2.204148   -1.157548
C      1.067016    3.579570   -0.665991
C     -0.048089    3.743170    0.331819
O      0.260029    3.982023    1.531445
C     -1.483306    3.611404   -0.043884
C     -2.475648    3.638039    0.956571
C     -3.827370    3.511294    0.622741
C     -4.208441    3.357906   -0.710976
C     -3.238457    3.332102   -1.714141
C     -1.884753    3.458411   -1.387190
H      3.556705   -2.370591    0.731373
H      3.413577   -0.624657    1.108880
H      3.952771   -1.140722   -0.528933
H      0.602416   -2.591937   -1.567668
H      2.325091   -2.412326   -2.053150
H      1.880676   -3.537734   -0.714075
H      0.985514   -0.876179    1.791646
H      1.008168   -2.635874    1.451784
H     -0.210845   -1.577274    0.644510
H      0.898161    2.018799   -2.161458
H      2.043360    3.843217   -0.203637
H      0.911399    4.279073   -1.514567
H     -2.208585    3.752656    1.999647
H     -4.580220    3.531424    1.400192
H     -5.255437    3.259927   -0.967285
H     -3.535616    3.215173   -2.748405
H     -1.163405    3.439768   -2.191483
