34

C     -0.533663   -3.118193   -3.408699
C      0.334945   -2.102026   -2.651565
C      0.699230   -2.688133   -1.273925
C      1.606054   -1.822403   -3.476214
O     -0.444411   -0.905656   -2.501882
C     -0.037494    0.276203   -1.865027
O      1.112668    0.379807   -1.358494
N     -0.952663    1.375109   -1.793907
C     -0.611416    2.640983   -1.146008
C     -0.560185    2.491034    0.353482
O     -1.176301    1.531367    0.894289
C      0.156779    3.470874    1.210835
C      0.558993    4.726312    0.711653
C      1.230751    5.634911    1.535521
C      1.506801    5.306430    2.864020
C      1.109001    4.069086    3.373412
C      0.436450    3.156440    2.555057
H     -0.821323   -2.713870   -4.403157
H     -1.465091   -3.328294   -2.839947
H      0.011563   -4.075100   -3.560259
H     -0.216339   -2.815370   -0.657452
H      1.190313   -3.678696   -1.388261
H      1.400126   -2.027040   -0.724787
H      2.307972   -1.161957   -2.927667
H      2.141861   -2.769857   -3.701392
H      1.339611   -1.329279   -4.435541
H     -1.891237    1.274905   -2.241739
H     -1.381707    3.400820   -1.398062
H      0.367408    2.994382   -1.535710
H      0.345451    5.018098   -0.307830
H      1.534392    6.597134    1.143635
H      2.026636    6.011782    3.499430
H      1.322307    3.815795    4.403918
H      0.142640    2.201449    2.972654
