40

C     -3.450530   -0.926803    0.892821
O     -2.903555   -0.258797   -0.239159
C     -1.602899    0.267953   -0.314853
C     -0.715507    0.164266    0.770945
C      0.572204    0.693834    0.699755
C      1.020031    1.316569   -0.476131
C      0.148037    1.430537   -1.574512
C     -1.170772    0.911706   -1.501769
C     -1.999919    1.054652   -2.638159
O     -3.184233    0.616132   -2.632456
C     -1.500127    1.691755   -3.786762
C     -0.174676    2.173919   -3.766741
O      0.575286    2.026841   -2.684294
C      0.357573    2.807965   -4.895001
C     -0.417918    2.958747   -6.047258
C     -1.728715    2.479872   -6.076134
C     -2.273381    1.849397   -4.952950
C      2.442737    1.814451   -0.591719
C      3.255496    1.627249    0.662474
O      4.465050    1.769613    0.603458
C      2.579767    1.378189    1.997761
C      2.174594    2.722870    2.619291
C      3.511639    0.621725    2.959390
O      1.409247    0.582675    1.813340
H     -3.451748   -0.254575    1.775819
H     -2.866140   -1.845565    1.111520
H     -4.498501   -1.217774    0.670662
H     -1.015885   -0.324251    1.686558
H      1.376007    3.176482   -4.880694
H     -0.001586    3.445621   -6.918581
H     -2.324735    2.594987   -6.971424
H     -3.292060    1.487166   -5.000654
H      2.939589    1.259953   -1.418742
H      2.436848    2.893803   -0.849768
H      1.491422    3.280535    1.941604
H      3.067415    3.350947    2.814309
H      1.642378    2.559328    3.579933
H      2.984291    0.403756    3.912757
H      4.417978    1.222432    3.190504
H      3.823493   -0.344840    2.510457
