44

C      1.047510   -0.425263   -5.471143
O      1.047447   -0.323113   -4.051031
C      2.046793    0.316454   -3.300381
C      3.162580    0.926722   -3.904099
C      4.134435    1.552193   -3.120640
C      4.009377    1.579052   -1.730697
C      2.901698    0.975045   -1.108608
C      1.921041    0.343117   -1.902874
O      0.870293   -0.232818   -1.332913
C      0.671861   -0.256399   -0.017928
C      1.602054    0.358905    0.858649
C      2.736371    0.981192    0.287429
O      3.601159    1.542525    1.015936
C      1.360349    0.338155    2.255337
O      2.271791    0.952666    3.132248
C      2.136472    0.996139    4.549340
C      0.204684   -0.300045    2.741931
C     -0.693279   -0.919471    1.873740
C     -0.473127   -0.895587    0.490629
C     -1.496794   -1.470316   -0.459276
C     -2.596740   -2.250101    0.214049
O     -3.489826   -2.712911   -0.481406
C     -2.565859   -2.549359    1.702898
C     -3.987958   -2.558311    2.284639
C     -1.903611   -3.915923    1.928139
O     -1.818584   -1.553623    2.403722
H      0.142423   -0.978941   -5.794553
H      1.945718   -0.981051   -5.813930
H      1.026665    0.587236   -5.926765
H      3.288254    0.923153   -4.978107
H      4.989083    2.018843   -3.593477
H      4.777935    2.071594   -1.147750
H      2.127555   -0.033906    4.964160
H      3.000497    1.543383    4.978604
H      1.204050    1.531010    4.827982
H     -0.005616   -0.333292    3.802111
H     -1.956226   -0.633105   -1.027505
H     -0.986717   -2.142892   -1.182347
H     -4.603988   -3.360711    1.823956
H     -3.953057   -2.729961    3.382042
H     -4.481458   -1.579464    2.102097
H     -1.850914   -4.144207    3.014318
H     -0.868275   -3.914022    1.524038
H     -2.479376   -4.721136    1.422389
