44

C      4.872918    0.672115    2.887731
O      3.731762    0.649877    2.036599
C      3.459677    1.608155    1.047213
C      4.314430    2.700621    0.806802
C      4.006702    3.631702   -0.187135
C      2.848464    3.488577   -0.952840
C      1.981732    2.403691   -0.727968
C      2.294945    1.464262    0.277640
O      1.488132    0.435525    0.504319
C      0.364707    0.222455   -0.175115
C     -0.027580    1.111275   -1.208728
C      0.806570    2.221269   -1.477641
O      0.508903    3.049160   -2.382994
C     -1.218972    0.853849   -1.932542
O     -1.612256    1.723971   -2.964790
C     -2.784567    1.569465   -3.758621
C     -1.990749   -0.275671   -1.603638
C     -1.607245   -1.132203   -0.572590
C     -0.425940   -0.896617    0.142288
C      0.048506   -1.879849    1.185688
C     -0.955975   -2.949180    1.530449
O     -0.633520   -3.810450    2.336480
C     -2.370779   -2.922120    0.978377
C     -2.887812   -4.349138    0.739280
C     -3.286450   -2.197806    1.975233
O     -2.412910   -2.232126   -0.271902
H      4.832918   -0.201382    3.570181
H      5.801862    0.608293    2.282614
H      4.876228    1.600041    3.497747
H      5.219111    2.839393    1.382643
H      4.669755    4.468651   -0.365009
H      2.634833    4.225436   -1.717371
H     -2.837766    2.400897   -4.490859
H     -3.689080    1.605007   -3.115395
H     -2.745682    0.609091   -4.314775
H     -2.904942   -0.497033   -2.137085
H      0.971006   -2.372019    0.809327
H      0.303169   -1.329282    2.117027
H     -2.941757   -4.920253    1.691374
H     -2.214358   -4.886817    0.037595
H     -3.904074   -4.319419    0.290617
H     -4.323504   -2.147458    1.579432
H     -2.928880   -1.158905    2.142717
H     -3.303299   -2.728029    2.952083
