35

H     -2.551304   -1.359489   -1.081329
C     -1.707099   -0.640134   -1.014403
H     -1.038100   -1.059775   -0.255765
C     -1.007629   -0.616068   -2.394763
C      0.005112    0.531425   -2.635095
C      1.487462    0.174688   -2.388013
C      1.869629   -0.269234   -0.959754
C      2.300765    0.866760   -0.003552
C      1.160680    1.762153    0.531715
C      0.704642    1.441857    1.970066
C     -0.145068    0.163318    2.090537
C     -1.677811    0.344258    1.944507
C     -2.203852    1.261405    0.815515
H     -1.665111    2.229061    0.801993
H     -3.246886    1.525059    1.098057
C     -2.287543    0.691100   -0.591097
O     -2.911130    1.335678   -1.421766
H     -1.806152   -0.530755   -3.165060
H     -0.516794   -1.598037   -2.569365
H     -0.288723    1.468489   -2.134544
H     -0.060303    0.787763   -3.715690
H      1.748547   -0.652809   -3.084470
H      2.117355    1.039470   -2.689507
H      2.758911   -0.929222   -1.064588
H      1.101225   -0.918654   -0.523437
H      3.039699    1.506453   -0.534242
H      2.852413    0.415704    0.849793
H      1.530598    2.810789    0.536323
H      0.301307    1.751688   -0.142287
H      1.605351    1.341718    2.614567
H      0.132590    2.303592    2.377261
H      0.237931   -0.629541    1.433097
H      0.022233   -0.242089    3.112757
H     -2.157501   -0.655069    1.864289
H     -2.040254    0.777619    2.903152
