35

H      3.818703    1.137748   -1.510212
C      2.876130    0.884994   -0.979398
H      2.695791   -0.198011   -1.140245
C      3.079851    1.174484    0.522272
C      1.880511    0.777941    1.402908
C      1.855633   -0.726828    1.724063
C      0.534007   -1.168296    2.403891
C     -0.319900   -2.136244    1.544269
C     -1.671477   -1.558956    1.074555
C     -1.592163   -0.271674    0.234815
C     -0.672728   -0.396912   -0.988999
C     -0.616553    0.913352   -1.795425
C      0.735815    1.090726   -2.506150
H      1.094645    0.115825   -2.902846
H      0.599495    1.760834   -3.382642
C      1.766803    1.709375   -1.591799
O      1.723010    2.912299   -1.378493
H      3.991481    0.643680    0.873798
H      3.276207    2.260984    0.654554
H      0.940773    1.099393    0.917036
H      1.950006    1.334174    2.363262
H      2.062646   -1.319399    0.810333
H      2.700290   -0.939853    2.416111
H      0.803069   -1.700136    3.343494
H     -0.064872   -0.292269    2.734835
H      0.238943   -2.538642    0.673976
H     -0.553443   -3.029108    2.165226
H     -2.303146   -1.356917    1.966963
H     -2.194290   -2.338060    0.477853
H     -2.617843   -0.023794   -0.115753
H     -1.264980    0.568171    0.880645
H     -1.032189   -1.219177   -1.645526
H      0.344942   -0.664364   -0.655124
H     -0.810882    1.795799   -1.145543
H     -1.426082    0.891023   -2.557276
