40

C      1.619356    1.538894   -1.060736
C      1.473329    0.105352   -0.492250
N      0.059291   -0.216963   -0.789202
C     -0.635846   -1.357969   -0.274736
O     -0.036900   -2.160666    0.490418
O     -1.978028   -1.561617   -0.630421
C     -2.824554   -2.630292   -0.183172
C     -2.263837   -3.992228   -0.634856
C     -2.985541   -2.589091    1.348424
C     -4.200679   -2.419717   -0.832596
C     -0.530733    0.761529   -1.722009
C     -1.460607    1.804994   -0.984084
C     -0.816725    3.068773   -0.350639
O     -1.314516    3.517244    0.670560
C      0.414547    3.794426   -0.938686
C      1.772049    3.039876   -0.642610
C      0.254265    3.839320   -2.425702
C      0.414847    2.695063   -3.092722
C      0.708057    1.418176   -2.323276
H      1.037777    1.660183   -0.128762
H      2.126815   -0.581312   -1.073303
H      1.730743   -0.060148    0.592581
H     -1.310341   -4.228612   -0.120340
H     -2.982995   -4.807185   -0.402299
H     -2.077602   -3.985517   -1.730190
H     -3.317036   -1.578980    1.671523
H     -2.031122   -2.823617    1.862194
H     -3.740028   -3.333923    1.682181
H     -4.109859   -2.432427   -1.940203
H     -4.912863   -3.216625   -0.526666
H     -4.621056   -1.435335   -0.533306
H     -1.102061    0.232477   -2.516779
H     -2.038182    1.265818   -0.202384
H     -2.211155    2.165173   -1.719465
H      0.471523    4.833405   -0.547008
H      2.133049    3.234996    0.407052
H      2.570610    3.481738   -1.279137
H      0.059266    4.771134   -2.947349
H      0.352346    2.680663   -4.176328
H      1.181759    0.709603   -3.041148
