41

C      2.107624    5.928353    1.447244
C      1.306221    4.667084    1.316684
C      0.168053    4.467116    2.111043
C     -0.558825    3.276855    2.015344
C     -0.144650    2.256790    1.142703
C     -0.937363    1.009551    1.044400
O     -2.194767    1.090818    1.085888
C     -0.298781   -0.323128    0.905732
O      0.957963   -0.422093    0.937943
N     -1.089879   -1.517110    0.735424
C     -0.653702   -2.522197   -0.205945
C     -0.728985   -3.889919    0.118271
C     -0.306487   -4.858259   -0.797396
C      0.195821   -4.473312   -2.042750
C      0.277557   -3.118882   -2.374658
C     -0.143615   -2.146650   -1.462473
C     -2.250189   -1.750145    1.562755
C     -3.426005   -2.281809    1.003817
C     -4.549472   -2.507829    1.804613
C     -4.509863   -2.206236    3.168304
C     -3.346404   -1.678280    3.733838
C     -2.220355   -1.450904    2.937011
C      0.996964    2.460980    0.347384
C      1.722541    3.652215    0.443035
H      2.604342    6.178362    0.485562
H      1.453341    6.781431    1.727103
H      2.882218    5.793827    2.230797
H     -0.158150    5.233130    2.803796
H     -1.437300    3.145368    2.635413
H     -1.104474   -4.205790    1.083230
H     -0.366249   -5.907849   -0.540046
H      0.522318   -5.224493   -2.750259
H      0.665372   -2.821841   -3.340515
H     -0.083785   -1.101742   -1.739690
H     -3.473390   -2.511854   -0.053046
H     -5.451809   -2.915208    1.367237
H     -5.380621   -2.381671    3.786722
H     -3.316267   -1.446823    4.790700
H     -1.323238   -1.049568    3.390955
H      1.317838    1.712062   -0.365001
H      2.604532    3.786181   -0.171230
