70

C      2.303214   -2.755374    0.654210
C      1.374777   -3.959157    0.783290
C      0.799037   -4.176575   -0.636846
O      0.429501   -5.291026   -0.974057
C      0.750527   -2.985169   -1.641573
C     -0.368533   -3.126267   -2.638749
O     -1.525302   -3.457036   -2.253645
O     -0.123295   -2.840695   -3.984722
C     -1.140594   -2.896797   -4.977677
C      0.557578   -1.722798   -0.776518
C      0.141456   -0.339624   -1.193256
C      0.073297    0.380279    0.192963
O     -1.277738    0.534530    0.574474
Si    -1.818859    2.191366    0.700096
C     -1.076072    3.443909   -0.562982
C     -0.781673    2.833150   -1.939442
C      0.152485    4.208266   -0.053822
C     -3.708897    2.122059    0.394963
C     -4.077396    2.244215   -1.088180
C     -4.314255    0.821134    0.942537
C     -1.502508    2.840968    2.474000
C     -2.548306    2.362103    3.483840
C     -0.107438    2.460469    2.979411
C      0.793469   -0.567800    1.213453
C      1.635439   -1.465055    0.290294
O      2.780811   -0.708104   -0.010730
C      3.753481   -1.185092    0.950022
C      5.069968   -1.477403    0.203571
C      4.037778   -0.123008    2.030183
O      3.266911   -2.386123    1.574826
H      2.916451   -3.098319   -0.224515
H      0.560937   -3.764795    1.513256
H      1.959958   -4.849246    1.099236
H      1.712546   -2.920121   -2.193979
H     -1.552992   -3.926181   -5.041967
H     -1.952733   -2.179956   -4.730118
H     -0.705634   -2.622042   -5.960773
H     -0.377366   -2.057677   -0.242698
H      0.921098    0.106693   -1.847632
H     -0.840055   -0.343051   -1.717388
H      0.648502    1.326262    0.141843
H     -1.865064    4.212259   -0.700692
H      0.223324    2.366749   -1.961874
H     -1.531932    2.071875   -2.222143
H     -0.795638    3.631612   -2.711857
H      0.449633    4.976063   -0.800253
H      1.020250    3.537045    0.100974
H     -0.075191    4.744892    0.888133
H     -4.166734    2.983237    0.925789
H     -3.659027    1.394969   -1.668039
H     -3.724065    3.202312   -1.515781
H     -5.181931    2.229218   -1.204257
H     -5.417359    0.827963    0.806045
H     -4.119994    0.698355    2.022869
H     -3.899960   -0.060323    0.407309
H     -1.574103    3.948137    2.434012
H     -2.529326    1.255230    3.572516
H     -2.332438    2.792266    4.486210
H     -3.562538    2.705488    3.194526
H      0.682056    2.741162    2.256108
H     -0.052021    1.369387    3.172689
H      0.105482    2.990352    3.933052
H      1.381941    0.031009    1.925138
H      0.065288   -1.172661    1.799968
H      5.508011   -0.533609   -0.186071
H      4.901407   -2.150598   -0.662639
H      5.802792   -1.961737    0.884199
H      3.304505   -0.177755    2.858344
H      4.019695    0.894865    1.585829
H      5.032443   -0.287056    2.497704
