16

O      0.888180    0.957226   -2.505454
C      0.921868    0.049120   -1.634097
C      1.851335   -1.069707   -1.561704
O      2.782730   -1.306525   -2.374696
N      1.559985   -1.878527   -0.423292
C      0.443179   -1.239556    0.196045
C     -0.215200   -1.653694    1.353057
C     -1.301858   -0.887043    1.810550
C     -1.707694    0.269254    1.110255
C     -1.031141    0.670882   -0.054721
C      0.042086   -0.105176   -0.487653
H      2.053794   -2.744479   -0.112897
H      0.101066   -2.541289    1.885275
H     -1.830614   -1.186122    2.706199
H     -2.545429    0.850860    1.472393
H     -1.335489    1.556046   -0.597940
