36

C     -0.434993    0.418377   -2.298399
C      0.086188    0.001688   -3.654711
C      1.522128    0.594592   -3.643867
C      1.856023    0.947141   -2.163218
O      3.126153    0.453125   -1.801820
C      3.712907    1.467691   -1.053313
C      2.979867    2.727522   -1.407196
O      1.756462    2.339539   -1.947446
C      0.758258    0.204785   -1.423654
C      0.241037    0.511757   -0.024095
C     -1.156814   -0.179692   -0.036617
C     -1.141869   -1.576291    0.606012
O     -0.955483   -1.474621    2.018100
C      0.250221   -1.756524    2.671155
C      0.343378   -1.570905    4.147223
O      1.242021   -2.209169    2.037279
C     -1.476523   -0.273734   -1.511426
O     -2.506905   -0.734859   -1.976859
H     -0.718245    1.498217   -2.343065
H     -0.529372    0.431903   -4.473729
H      0.116370   -1.107397   -3.742221
H      2.237167   -0.155515   -4.047258
H      1.569420    1.504239   -4.281803
H      4.792102    1.550017   -1.303216
H      3.598761    1.238844    0.029175
H      2.815091    3.358113   -0.507587
H      3.546586    3.307301   -2.167728
H      1.046334   -0.879410   -1.421343
H      0.125515    1.609617    0.113759
H      0.927276    0.118511    0.752935
H     -1.910045    0.460319    0.472829
H     -2.127716   -2.057728    0.431473
H     -0.371972   -2.227046    0.136250
H     -0.404782   -0.822564    4.482902
H      0.145262   -2.537642    4.654828
H      1.357380   -1.211987    4.423145
