47

C     -0.918933   -1.647799   -6.009646
O     -0.130084   -1.496546   -4.835765
C      0.729308   -0.410708   -4.636662
O      0.826095    0.483950   -5.522554
C      1.513541   -0.310802   -3.379989
C      2.291304    0.763080   -3.146191
C      3.060628    0.982051   -1.900807
C      2.658256    0.633892   -0.667989
C      1.373454   -0.023470   -0.339471
C      0.770646   -0.951251   -1.110507
C     -0.556539   -1.526000   -0.741762
O     -1.230612   -2.133010   -1.617766
C     -1.150615   -1.388524    0.634379
C     -1.990424   -0.106172    0.739145
C     -2.448751    0.168774    2.176751
C     -1.300070    0.589612    3.040338
O     -0.896199    1.782728    2.996273
O     -0.662653   -0.368142    3.843264
C      0.533598   -0.170873    4.610927
C      0.853546   -1.504350    5.303076
C      0.318362    0.909905    5.687627
C      1.709819    0.205528    3.689501
C      1.448345   -1.427408   -2.370503
H     -0.262508   -1.712291   -6.903165
H     -1.512873   -2.581390   -5.931521
H     -1.613176   -0.787291   -6.114511
H      2.412263    1.514969   -3.916167
H      3.965187    1.571420   -1.984952
H      3.261802    0.964888    0.168133
H      0.935053    0.272821    0.601855
H     -1.802649   -2.265540    0.840337
H     -0.343644   -1.411260    1.395592
H     -1.419169    0.769705    0.360096
H     -2.890433   -0.217191    0.095523
H     -3.207566    0.980894    2.166213
H     -2.931532   -0.736487    2.604602
H      0.015138   -1.804053    5.968192
H      0.996346   -2.306175    4.546759
H      1.779116   -1.425170    5.913743
H      1.194563    0.961677    6.369562
H     -0.585738    0.676081    6.289579
H      0.187444    1.913654    5.235049
H      1.828507   -0.555679    2.888927
H      1.548048    1.192371    3.209842
H      2.657117    0.260606    4.268127
H      2.478870   -1.770644   -2.130167
H      0.941205   -2.322027   -2.786825
