85

C     -2.519066   -4.430467    0.677959
C     -1.598054   -5.280349    1.590447
C     -2.484089   -6.118992    2.508288
C     -3.864599   -5.649394    2.249638
O     -4.831000   -6.099144    2.851104
C     -3.983674   -4.602332    1.188822
C     -4.905036   -5.113991    0.061911
C     -4.580601   -3.296061    1.785229
C     -3.576580   -2.537735    2.665070
C     -2.249555   -2.177072    1.925045
C     -2.116272   -2.936670    0.565491
C     -0.722058   -2.737056   -0.055893
C     -0.426693   -1.243377   -0.248930
C     -0.552984   -0.485961    1.088099
C     -0.118452    0.984846    0.949285
C     -0.041959    1.684969    2.334403
O      0.962201    1.087164    3.123643
C      0.259345    3.199843    2.167777
N      1.477338    3.402458    1.347563
C      2.536413    4.124122    2.074892
C      3.808553    4.246167    1.206139
N      3.615988    3.596775   -0.106921
C      4.834988    3.705263   -0.931408
C      4.833392    2.642712   -1.999516
C      5.037332    1.299810   -1.647494
C      5.014145    0.305210   -2.626319
C      4.775035    0.640718   -3.960676
C      4.553419    1.972102   -4.330442
O      4.310026    2.254659   -5.682499
C      4.082838    3.559119   -6.203184
C      4.582434    2.974946   -3.341364
C      2.449480    4.191823   -0.796364
C      1.181533    4.087441    0.074988
C     -1.388656    1.524706    3.079748
C     -1.879886    0.062307    3.149414
C     -1.966396   -0.633993    1.753109
C     -3.095048    0.037471    0.910785
H     -2.432502   -4.864823   -0.345202
H     -0.964948   -5.950995    0.967539
H     -0.910983   -4.665678    2.203210
H     -2.402226   -7.199109    2.261452
H     -2.219430   -5.955766    3.576266
H     -4.573369   -6.105538   -0.309271
H     -5.947271   -5.209112    0.426196
H     -4.899321   -4.403705   -0.790696
H     -5.489314   -3.526925    2.385433
H     -4.908592   -2.615836    0.967685
H     -4.092802   -1.647562    3.069456
H     -3.338440   -3.168374    3.548882
H     -1.436310   -2.553160    2.583531
H     -2.833711   -2.506693   -0.163312
H      0.062883   -3.186389    0.591644
H     -0.675531   -3.241609   -1.046550
H     -1.104963   -0.811324   -1.014785
H      0.611170   -1.143297   -0.636961
H      0.190810   -0.963420    1.767557
H      0.884149    1.014939    0.468849
H     -0.810738    1.530017    0.275308
H      1.829009    1.180161    2.650300
H     -0.624912    3.705738    1.714361
H      0.371229    3.647921    3.182168
H      2.183667    5.141414    2.365777
H      2.790699    3.572203    3.007396
H      4.650726    3.753660    1.742263
H      4.074215    5.320554    1.074609
H      4.930575    4.722832   -1.373069
H      5.743325    3.548872   -0.309106
H      5.215110    1.024938   -0.614122
H      5.174039   -0.729782   -2.350122
H      4.759655   -0.139402   -4.711584
H      4.965064    4.207496   -6.015951
H      3.920848    3.487738   -7.299202
H      3.173059    4.000222   -5.740775
H      4.405913    4.008470   -3.604058
H      2.262762    3.652025   -1.752419
H      2.641478    5.262991   -1.041972
H      0.405872    3.520871   -0.487646
H      0.776250    5.105386    0.267859
H     -1.275410    1.903089    4.120028
H     -2.172270    2.156671    2.610875
H     -1.188505   -0.507002    3.811209
H     -2.871221    0.072482    3.647879
H     -4.084275   -0.099625    1.391571
H     -2.948436    1.127382    0.799790
H     -3.163432   -0.368104   -0.114290
