50

C      0.894218   -0.539821    2.244958
C      0.761101   -1.898190    2.973770
C     -0.196610   -2.881854    2.793367
C     -1.306359   -3.011459    1.742521
C     -1.342354   -2.350536    0.550087
C     -0.253804   -1.380631    0.316955
C     -0.296865   -0.411518    1.435692
O     -1.192083    0.398379    1.630241
C      0.498737   -0.671375   -0.812647
C     -0.373414    0.388198   -1.444336
O      0.146380    1.449071   -1.888681
O     -1.745854    0.152932   -1.598531
C     -2.611456    1.011628   -2.336382
C     -2.419322    0.801671   -3.833738
C      0.902529   -1.663197   -1.892895
O      1.986708   -2.301998   -1.791534
O      0.030125   -1.925638   -2.955412
C      0.324011   -2.867732   -3.980292
C     -0.812184   -2.888208   -4.989908
N      1.710100   -0.005340   -0.184175
C      2.116152   -0.432686    1.218179
C      3.149410    0.530437    1.757483
C      4.315293    0.050243    2.379848
C      5.254212    0.943836    2.904532
C      5.033374    2.321098    2.822552
C      3.870539    2.807763    2.220022
C      2.928951    1.918382    1.693769
H      0.916380    0.275734    3.002009
H      1.484395   -2.064078    3.762512
H     -0.154393   -3.708160    3.491744
H     -2.074162   -3.751464    1.927262
H     -2.121162   -2.524593   -0.180751
H      0.544871   -2.150357    0.463470
H     -2.427463    2.074356   -2.066799
H     -3.661764    0.765668   -2.073423
H     -3.127962    1.445705   -4.395580
H     -2.613358   -0.260359   -4.094020
H     -1.382964    1.065080   -4.131793
H      1.267146   -2.581783   -4.494619
H      0.441135   -3.880129   -3.536425
H     -0.926489   -1.884626   -5.451819
H     -1.761884   -3.168072   -4.486605
H     -0.592924   -3.629605   -5.786793
H      2.541770   -0.039809   -0.819774
H      2.591860   -1.436731    1.133062
H      4.497659   -1.014063    2.461176
H      6.151766    0.568080    3.378505
H      5.760695    3.010940    3.230682
H      3.696652    3.874606    2.164214
H      2.026527    2.309748    1.240342
