28

O      2.194498    0.395997   -4.336521
C      1.413908    0.748667   -3.409762
C      1.762625    0.367501   -2.011682
C      1.393037    1.164800   -0.909641
C      1.717343    0.770563    0.391807
C      2.421104   -0.414902    0.610624
C      2.806710   -1.206732   -0.472439
C      2.484580   -0.817616   -1.776180
C      0.185598    1.565134   -3.765867
Cl     0.537174    3.301025   -3.573430
Cl    -0.297116    1.283567   -5.462745
C     -0.955287    1.197260   -2.918590
C     -1.864162    0.880250   -2.193403
C     -2.938131    0.478469   -1.278364
C     -2.372163    0.074022    0.088733
C     -1.563262   -1.224587    0.020567
Cl    -0.952192   -1.649132    1.638836
H      0.858683    2.094035   -1.045597
H      1.421874    1.385627    1.231957
H      2.668523   -0.719245    1.619341
H      3.353327   -2.125218   -0.302034
H      2.784643   -1.452903   -2.600399
H     -3.628491    1.338311   -1.147671
H     -3.508992   -0.363117   -1.725333
H     -3.220717   -0.070197    0.792232
H     -1.733466    0.892767    0.488885
H     -0.694822   -1.108188   -0.661265
H     -2.202884   -2.054602   -0.347546
