35

C     -1.036779   -1.948328   -3.009309
C     -1.292469   -0.953451   -4.140664
C     -0.030251   -0.186013   -4.572861
C      0.454304    0.842526   -3.538559
C      1.269732    0.214019   -2.493280
C      1.933458   -0.310211   -1.634093
C      2.730561   -0.956666   -0.587295
Cl     4.388748   -1.169335   -1.220781
Cl     2.085227   -2.590093   -0.264738
C      2.729240   -0.108319    0.671118
O      3.760056    0.568598    0.941029
C      1.559527   -0.009093    1.594052
C      0.250721   -0.331262    1.184025
C     -0.824111   -0.217818    2.070568
C     -0.615318    0.225666    3.388311
O     -1.661064    0.354969    4.314376
C     -3.024849    0.057325    4.033353
C      0.680028    0.553191    3.797893
C      1.755866    0.441068    2.913165
H     -0.866557   -1.414200   -2.052706
H     -1.927376   -2.599039   -2.881782
H     -0.160165   -2.589919   -3.241140
H     -2.089399   -0.240650   -3.836475
H     -1.670499   -1.520067   -5.019228
H     -0.281636    0.366320   -5.504526
H      0.785050   -0.897042   -4.834212
H     -0.405029    1.369936   -3.072654
H      1.084212    1.600667   -4.050360
H      0.042047   -0.662218    0.178576
H     -1.814147   -0.474636    1.719107
H     -3.132093   -1.011335    3.751017
H     -3.396840    0.708526    3.214330
H     -3.632082    0.247405    4.941915
H      0.854772    0.896879    4.809666
H      2.746292    0.698931    3.267271
