28

C     -1.378224    2.584304    2.499940
C      0.147953    2.535845    2.427639
C      0.748204    1.331921    3.182858
C      0.352460   -0.039285    2.608403
C      0.769294   -0.183394    1.207961
C      1.097047   -0.288005    0.051875
C      1.477224   -0.402542   -1.361077
Cl     1.440105    1.216549   -2.116332
Cl     3.168818   -0.994246   -1.427040
C      0.528915   -1.339280   -2.086130
O      0.997255   -2.337058   -2.705310
C     -0.939088   -1.124232   -2.115020
C     -1.655782   -0.065660   -1.553310
C     -3.040088   -0.160093   -1.757257
C     -3.425946   -1.285001   -2.476859
S     -2.041652   -2.161538   -2.859278
H     -1.824507    1.748261    1.917968
H     -1.718463    2.526954    3.557068
H     -1.738839    3.541368    2.061885
H      0.467500    2.527141    1.361738
H      0.549897    3.467802    2.886842
H      1.857446    1.420000    3.166191
H      0.436159    1.377811    4.249655
H     -0.743607   -0.193725    2.683362
H      0.848362   -0.835784    3.205686
H     -1.206982    0.757587   -1.010803
H     -3.743603    0.574277   -1.386720
H     -4.442794   -1.551151   -2.742153
