28

C      1.534635    0.740833   -1.197229
C      1.292890   -0.747525   -0.950888
C      2.301462   -1.366604    0.035823
C      2.259448   -0.766084    1.449921
C      0.927118   -0.891380    2.051256
C     -0.180755   -0.981449    2.517023
C     -1.545783   -1.075282    3.045383
Cl    -1.930063    0.419075    3.936516
Cl    -1.603074   -2.442008    4.195064
C     -2.527944   -1.257616    1.910660
O     -3.350082   -2.213894    1.935935
C     -2.559345   -0.319051    0.770305
C     -3.372097   -0.423350   -0.342004
C     -3.051381    0.654029   -1.139625
C     -2.067677    1.349545   -0.467048
O     -1.796902    0.746153    0.666947
H      1.295877    1.331156   -0.288192
H      0.872837    1.090864   -2.017314
H      2.590396    0.920097   -1.491779
H      1.384189   -1.281356   -1.921450
H      0.253526   -0.900037   -0.589641
H      2.102064   -2.458657    0.104164
H      3.329028   -1.247815   -0.371575
H      2.554090    0.303456    1.428361
H      2.987721   -1.303921    2.092819
H     -4.104795   -1.191483   -0.551853
H     -3.482668    0.903144   -2.099798
H     -1.582419    2.253824   -0.808842
