31

C     -5.371884    1.139764   -0.098989
O     -4.163323    0.521919   -0.524295
C     -4.131867   -0.743882   -1.119610
O     -5.193772   -1.405874   -1.285513
C     -2.818171   -1.333600   -1.523045
C     -2.189716   -2.085270   -0.348582
C     -0.893132   -2.645112   -0.740992
C      0.176637   -3.094371   -1.068661
C      1.485250   -3.624720   -1.471756
Cl     1.561633   -5.322639   -0.916036
Cl     1.608186   -3.628034   -3.250546
C      2.617093   -2.806690   -0.877247
O      3.642979   -3.413660   -0.462167
C      2.597232   -1.316568   -0.791641
C      1.820866   -0.527414   -1.665554
C      1.823012    0.866995   -1.555544
C      2.602236    1.492943   -0.581287
C      3.384771    0.725965    0.283489
C      3.386471   -0.668646    0.178633
H     -5.139061    2.123527    0.357865
H     -5.878587    0.502939    0.657348
H     -6.043243    1.297053   -0.969069
H     -2.970911   -2.027509   -2.381488
H     -2.140720   -0.514280   -1.855238
H     -2.854982   -2.914796   -0.025366
H     -2.033461   -1.393107    0.507064
H      1.218283   -0.976402   -2.441681
H      1.221651    1.463138   -2.229923
H      2.601963    2.572290   -0.498293
H      3.990084    1.211956    1.037987
H      3.996115   -1.241751    0.866508
