28

C     -1.654921   -2.844239   -1.631306
C     -0.281700   -3.341019   -1.181569
C      0.480002   -2.321891   -0.315413
C     -0.095537   -2.161332    1.100961
C     -1.225026   -1.225764    1.119690
C     -2.150894   -0.453801    1.119867
C     -3.273462    0.489567    1.099227
Cl    -4.331025    0.117517   -0.287124
Cl    -4.224665    0.237224    2.591421
C     -2.764108    1.912234    0.997847
O     -3.084254    2.751641    1.882693
C     -1.903005    2.373589   -0.113218
C     -1.455439    1.632033   -1.193688
C     -0.687982    2.493044   -1.946906
C     -0.712042    3.703821   -1.287481
O     -1.442461    3.601144   -0.201336
H     -1.573557   -1.840570   -2.099022
H     -2.356885   -2.802406   -0.773562
H     -2.074004   -3.548482   -2.380467
H      0.324906   -3.545120   -2.090535
H     -0.394129   -4.302068   -0.634405
H      0.537036   -1.338091   -0.833083
H      1.524552   -2.689186   -0.214078
H      0.693595   -1.753204    1.767467
H     -0.417050   -3.141705    1.512146
H     -1.656333    0.594177   -1.417594
H     -0.171582    2.265160   -2.869653
H     -0.211052    4.608838   -1.603819
