31

C     -1.876668   -1.106948    2.040595
C     -1.537053    0.371321    1.876626
C     -0.711910    0.885147    3.066100
C     -0.406778    2.384091    2.955871
C      0.510289    2.658452    1.843803
C      1.259203    2.860361    0.921255
C      2.166214    3.074439   -0.213821
Cl     3.848415    3.069884    0.370925
Cl     1.810956    4.686562   -0.892280
C      1.992883    2.007559   -1.275026
O      2.319363    2.274864   -2.463621
C      1.524745    0.632851   -0.961034
C      2.090512   -0.070655    0.118682
C      1.668506   -1.367232    0.421059
C      0.681132   -1.979445   -0.350880
C      0.107187   -1.293701   -1.422512
C      0.520961    0.007226   -1.735110
Br    -0.368672    0.906794   -3.178053
H     -2.508535   -1.258981    2.941365
H     -0.948621   -1.708761    2.140090
H     -2.435756   -1.461043    1.148935
H     -2.482575    0.950410    1.796377
H     -0.965115    0.502763    0.933499
H     -1.284087    0.714864    4.004260
H      0.240802    0.314329    3.140000
H      0.070244    2.729151    3.897375
H     -1.345561    2.959661    2.809965
H      2.865624    0.378242    0.725218
H      2.108594   -1.898291    1.255109
H      0.353124   -2.982946   -0.112657
H     -0.668941   -1.772018   -2.006080
