46

C     -0.750179   -2.112675   -0.909155
C      0.572611   -2.735378   -1.345433
C      1.761861   -1.997551   -0.720434
C      3.094815   -2.590529   -1.199887
C      4.317999   -1.985741   -0.486265
C      4.526121   -0.485550   -0.782323
C      4.007225    0.404394    0.357561
C      3.977815    1.884316   -0.057404
C      3.368638    2.777640    1.030736
C      1.946673    2.467931    1.227253
C      0.787297    2.172522    1.375502
C     -0.617074    1.775548    1.546734
Cl    -1.369137    2.907928    2.699230
Cl    -0.598443    0.129728    2.241488
C     -1.359364    1.812600    0.220775
O     -0.885931    2.508442   -0.721414
C     -2.646787    1.098179   -0.015350
C     -3.511898    0.745106    1.040295
C     -4.710623    0.072961    0.782442
C     -5.067518   -0.248429   -0.527909
C     -4.229230    0.107344   -1.585033
C     -3.030239    0.780506   -1.333475
H     -0.786544   -1.044741   -1.209623
H     -0.868171   -2.188178    0.192380
H     -1.593657   -2.647201   -1.394381
H      0.643292   -2.687441   -2.453962
H      0.587912   -3.803315   -1.036961
H      1.698014   -2.071983    0.387520
H      1.708024   -0.927233   -1.014945
H      3.195850   -2.444136   -2.297826
H      3.093377   -3.685708   -1.006545
H      5.214848   -2.536821   -0.844499
H      4.249804   -2.173976    0.608060
H      5.613941   -0.289235   -0.905081
H      4.037107   -0.211817   -1.743021
H      2.988008    0.081810    0.650493
H      4.666627    0.283282    1.244904
H      3.393407    2.004472   -0.996968
H      5.017117    2.224974   -0.257195
H      3.911537    2.639378    1.989858
H      3.460666    3.841384    0.725903
H     -3.277566    0.992131    2.064914
H     -5.366102   -0.195257    1.600928
H     -5.995919   -0.768927   -0.724442
H     -4.507467   -0.139482   -2.601461
H     -2.393690    1.037617   -2.170898
