31

C      1.199061    0.851837   -1.517750
C      0.095319    1.006783   -2.562116
C     -1.274741    0.500615   -2.075623
C     -1.968144    1.449512   -1.084531
C     -1.479175    1.254357    0.284322
C     -1.071275    1.083852    1.405948
C     -0.561503    0.860624    2.764488
Cl    -0.465299    2.457561    3.561089
Cl    -1.717754   -0.136942    3.682845
C      0.796687    0.184070    2.737117
O      1.672619    0.560651    3.564151
C      1.140187   -0.930762    1.806703
C      2.490323   -1.174513    1.487335
C      2.840338   -2.207106    0.612233
C      1.850485   -3.013869    0.049033
C      0.508880   -2.792796    0.363864
C      0.152806   -1.762684    1.239505
H      1.240462   -0.194714   -1.152492
H      1.035875    1.541219   -0.664789
H      2.178693    1.101581   -1.976645
H      0.386197    0.414688   -3.456961
H      0.025282    2.070497   -2.876916
H     -1.183304   -0.522445   -1.646498
H     -1.931043    0.413117   -2.968883
H     -1.824623    2.509547   -1.383182
H     -3.058729    1.239403   -1.087284
H      3.276262   -0.556112    1.902822
H      3.880648   -2.379349    0.368205
H      2.123142   -3.811544   -0.629738
H     -0.257647   -3.422105   -0.069633
H     -0.893777   -1.630873    1.470974
