28

C      2.744206    0.672116    0.549291
C      1.840403   -0.389559   -0.075597
C      1.234283   -1.347083    0.967618
C      0.204011   -0.689208    1.898541
C     -0.965393   -0.217129    1.149077
C     -1.909910    0.166463    0.506198
C     -3.036568    0.627468   -0.311841
Cl    -3.974595    1.795401    0.663390
Cl    -4.103035   -0.750478   -0.687116
C     -2.529546    1.253745   -1.594428
O     -2.904864    2.417076   -1.905024
C     -1.608718    0.548210   -2.516389
C     -1.166196   -0.771469   -2.432676
C     -0.279605   -1.127643   -3.456031
C     -0.019516   -0.101578   -4.353243
S     -0.893137    1.249359   -3.869391
H      3.520008    0.197200    1.186650
H      3.250827    1.244646   -0.256022
H      2.150134    1.385562    1.156782
H      1.039909    0.106585   -0.664278
H      2.448739   -0.989404   -0.786639
H      0.746758   -2.191690    0.432126
H      2.050435   -1.782631    1.584213
H      0.655201    0.157818    2.454426
H     -0.138373   -1.438484    2.643071
H     -1.463860   -1.466917   -1.660868
H      0.162071   -2.111613   -3.539447
H      0.633273   -0.163449   -5.213281
