37

C      0.255199   -3.446591    0.015588
C      0.380008   -2.082335   -0.659479
C     -0.096259   -2.092836   -2.123552
C     -1.610421   -2.298684   -2.297495
C     -2.373963   -1.220606   -1.657824
C     -2.970049   -0.320934   -1.120013
C     -3.649785    0.793774   -0.446501
Cl    -3.925900    2.114801   -1.610840
Cl    -5.241554    0.196377    0.102830
C     -2.833074    1.305825    0.724528
O     -3.443165    1.733162    1.743707
C     -1.344341    1.353853    0.718157
C     -0.642429    1.187882    1.925927
C      0.752779    1.164830    1.943920
C      1.475479    1.308872    0.753106
C      2.878524    1.248203    0.756443
C      3.587826    1.378171   -0.440814
C      2.906689    1.571795   -1.645573
C      1.511821    1.637121   -1.660894
C      0.785003    1.504991   -0.466047
C     -0.617036    1.541844   -0.472909
H      0.800331   -4.217210   -0.568171
H     -0.813482   -3.735694    0.113826
H      0.696681   -3.397675    1.031739
H      1.449823   -1.779381   -0.641461
H     -0.186714   -1.331124   -0.072336
H      0.441651   -2.892780   -2.677021
H      0.187604   -1.125985   -2.596820
H     -1.845341   -2.294365   -3.383548
H     -1.931948   -3.279653   -1.888108
H     -1.176100    1.047036    2.857444
H      1.266670    1.016274    2.887302
H      3.424130    1.094473    1.681409
H      4.667119    1.327255   -0.434963
H      3.463181    1.668061   -2.570108
H      1.002518    1.778409   -2.604039
H     -1.134765    1.701320   -1.409857
