46

C      1.070873   -4.131985   -1.760290
C      0.894434   -4.554201   -0.302501
C      1.726785   -3.703930    0.669425
C      1.238870   -2.249891    0.751966
C      1.960723   -1.492386    1.876530
C      1.617183    0.005442    1.904570
C      0.147421    0.268117    2.263618
C     -0.099347    1.760393    2.536167
C     -1.576597    2.056402    2.826753
C     -2.388823    1.868606    1.620141
C     -3.008988    1.700710    0.600922
C     -3.706509    1.487598   -0.672052
Cl    -5.243504    0.653808   -0.304232
Cl    -4.097380    3.061419   -1.410069
C     -2.856963    0.668410   -1.627420
O     -3.429820   -0.187276   -2.357182
C     -1.381965    0.848195   -1.777000
C     -0.738894    2.058625   -1.444702
C      0.646017    2.189412   -1.582613
C      1.405662    1.126324   -2.071949
C      0.781450   -0.069528   -2.427879
C     -0.601574   -0.211563   -2.278988
H      0.565835   -4.867297   -2.421400
H      2.147954   -4.095043   -2.028956
H      0.609615   -3.139180   -1.935753
H     -0.181851   -4.503081   -0.028746
H      1.215988   -5.613719   -0.204381
H      1.652426   -4.168273    1.677307
H      2.796556   -3.726006    0.365947
H      0.144438   -2.245672    0.942348
H      1.437839   -1.739077   -0.212786
H      1.710767   -1.949737    2.859031
H      3.058866   -1.589352    1.729462
H      1.849952    0.463307    0.918228
H      2.269825    0.489606    2.663788
H     -0.128052   -0.315834    3.169141
H     -0.494319   -0.062000    1.419098
H      0.238944    2.366600    1.665940
H      0.500605    2.070633    3.419360
H     -1.679954    3.110422    3.160412
H     -1.953783    1.393794    3.634574
H     -1.296931    2.911301   -1.086615
H      1.129894    3.119889   -1.315143
H      2.477452    1.230811   -2.179785
H      1.371725   -0.890595   -2.813235
H     -1.059747   -1.155270   -2.547579
