34

C      0.447238    2.293475   -1.666523
C      1.087061    3.674605   -1.545065
C      2.455779    3.648774   -0.842804
C      2.380954    3.270534    0.646095
C      2.414625    1.815097    0.834904
C      2.443881    0.618631    0.983585
C      2.476254   -0.840090    1.154462
Cl     4.111565   -1.388530    0.687192
Cl     2.235665   -1.249409    2.872028
C      1.416272   -1.518300    0.306674
O      1.701036   -2.612207   -0.254691
C      0.040708   -0.973803    0.128171
C     -0.573643   -0.168527    1.107858
C     -1.865878    0.342349    0.908729
C     -2.482354    1.249480    1.932019
C     -2.543615    0.061924   -0.285565
C     -1.950867   -0.748533   -1.254528
C     -0.671192   -1.268684   -1.048584
H      1.164982    1.563051   -2.096763
H     -0.441485    2.351966   -2.329450
H      0.108247    1.942896   -0.672137
H      1.228689    4.083889   -2.568805
H      0.395111    4.356824   -1.005006
H      3.155388    2.976286   -1.387901
H      2.881531    4.673571   -0.911905
H      1.464147    3.685551    1.116354
H      3.259218    3.699962    1.173148
H     -0.057562    0.068769    2.027169
H     -3.591186    1.200986    1.885532
H     -2.168664    0.952925    2.955553
H     -2.157034    2.293605    1.741555
H     -3.530610    0.469504   -0.466182
H     -2.481181   -0.967764   -2.172250
H     -0.227633   -1.883801   -1.821762
