31

C     -1.934025   -0.602692    4.302868
C     -2.204620   -1.476777    3.078659
C     -1.856940   -0.772658    1.758645
C     -2.838459    0.355696    1.418082
C     -2.518033    0.916229    0.102650
C     -2.230776    1.358763   -0.981094
C     -1.847792    1.872125   -2.302122
Cl    -2.503569    3.528541   -2.439822
Cl    -2.602639    0.875466   -3.571525
C     -0.340183    1.869238   -2.475067
O      0.195264    2.821333   -3.107250
C      0.540340    0.778070   -1.966270
C      1.886710    1.058678   -1.664045
C      2.729970    0.056853   -1.174018
C      2.243783   -1.237928   -0.985199
C      0.915106   -1.535127   -1.292666
C      0.068166   -0.538167   -1.785839
H     -2.626055    0.264243    4.328014
H     -2.095203   -1.199905    5.224987
H     -0.884446   -0.239177    4.296850
H     -1.581873   -2.393845    3.161703
H     -3.270237   -1.793592    3.074617
H     -1.886039   -1.532854    0.946226
H     -0.819331   -0.373121    1.806460
H     -3.878270   -0.034162    1.395755
H     -2.771312    1.169435    2.169226
H      2.284049    2.057976   -1.792404
H      3.761084    0.286082   -0.937773
H      2.897566   -2.011770   -0.604179
H      0.540724   -2.540983   -1.152314
H     -0.949223   -0.807256   -2.030250
