34

C      2.796906   -1.734979   -0.833432
C      3.853331   -0.795651   -1.414989
C      4.499556    0.124556   -0.360166
C      3.559198    1.220774    0.167024
C      2.660541    0.706557    1.205756
C      1.913232    0.275337    2.047570
C      0.988217   -0.255583    3.055917
Cl     1.760302   -1.702425    3.766948
Cl     0.767164    0.941952    4.357005
C     -0.354988   -0.605281    2.441149
O     -0.947066   -1.645124    2.843490
C     -1.034119    0.239674    1.415006
C     -0.772957    1.618939    1.294221
C     -1.425813    2.385015    0.324152
C     -2.351653    1.791171   -0.544912
C     -3.077451    2.629834   -1.556621
C     -2.639327    0.425580   -0.413068
C     -1.984403   -0.343139    0.554195
H      1.870349   -1.173972   -0.585309
H      2.535311   -2.508648   -1.586808
H      3.182565   -2.243419    0.077234
H      3.402079   -0.188065   -2.231468
H      4.656271   -1.419112   -1.867666
H      5.363929    0.629244   -0.844603
H      4.912623   -0.479164    0.480368
H      2.957639    1.655889   -0.660272
H      4.167026    2.036064    0.615280
H     -0.077721    2.117949    1.953927
H     -1.212546    3.444936    0.253967
H     -3.900488    3.181717   -1.053528
H     -3.505586    2.000006   -2.366914
H     -2.380399    3.361378   -2.020613
H     -3.369940   -0.046350   -1.060210
H     -2.217010   -1.398845    0.623372
