35

C     -2.204587    2.463186   -2.861479
C     -1.729782    2.661221   -1.422297
C     -0.690384    1.615695   -0.991706
C      0.667370    1.820162   -1.675443
C      1.639234    0.857184   -1.151031
C      2.413650    0.050585   -0.701235
C      3.320290   -0.952369   -0.127890
Cl     4.560188   -1.322982   -1.357814
Cl     4.135570   -0.263167    1.297812
C      2.574012   -2.210660    0.270045
O      3.196338   -3.308111    0.270974
C      1.151662   -2.201443    0.711672
C      0.672399   -1.173732    1.546167
C     -0.662151   -1.152038    1.952645
C     -1.533670   -2.159253    1.543342
C     -1.074628   -3.193149    0.725843
C      0.268953   -3.225567    0.299647
O      0.748967   -4.243823   -0.541591
C     -0.036359   -5.324542   -1.034284
H     -1.381799    2.663620   -3.578373
H     -2.580156    1.428175   -3.008141
H     -3.031224    3.172319   -3.077684
H     -1.314371    3.685603   -1.303994
H     -2.611472    2.576614   -0.750583
H     -1.073986    0.592833   -1.204552
H     -0.555023    1.699915    0.109808
H      1.043166    2.847428   -1.482628
H      0.579001    1.664629   -2.770362
H      1.329878   -0.387259    1.890794
H     -1.020260   -0.353566    2.589633
H     -2.568010   -2.140286    1.861779
H     -1.775150   -3.959922    0.425215
H     -0.875942   -4.937225   -1.649295
H     -0.427077   -5.929267   -0.188836
H      0.599523   -5.973455   -1.670568
