35

C     -2.445042   -2.871095   -2.661400
C     -1.133833   -3.655687   -2.694448
C      0.108698   -2.774674   -2.470515
C      0.249711   -2.257900   -1.029769
C     -0.568570   -1.061643   -0.803774
C     -1.241963   -0.077943   -0.624595
C     -2.059748    1.119138   -0.412962
Cl    -3.766909    0.681675   -0.694317
Cl    -1.622955    2.350065   -1.633543
C     -1.881528    1.622750    1.004301
O     -2.525501    1.063594    1.934058
C     -0.981368    2.747201    1.357384
C     -1.498716    3.803238    2.125956
C     -0.691673    4.885614    2.479361
C      0.643391    4.921344    2.079517
C      1.179759    3.870274    1.333321
C      0.378861    2.767234    0.973020
O      0.906133    1.680298    0.258407
C      2.252052    1.581430   -0.194380
H     -2.683279   -2.552968   -1.625470
H     -3.272933   -3.520804   -3.016756
H     -2.385846   -1.980267   -3.322810
H     -1.043367   -4.133801   -3.694160
H     -1.168032   -4.469820   -1.937960
H      1.001742   -3.398599   -2.693050
H      0.121165   -1.930314   -3.195814
H     -0.030911   -3.044673   -0.297480
H      1.310241   -1.982469   -0.846590
H     -2.535718    3.795496    2.439552
H     -1.103030    5.699045    3.062889
H      1.266829    5.762507    2.354291
H      2.221867    3.920846    1.049460
H      2.482957    2.415494   -0.890122
H      2.381110    0.621855   -0.735798
H      2.948140    1.598304    0.670527
