35

O     -0.803429    3.603887    0.330891
C     -0.681182    2.372992    0.083841
C      0.566771    1.669126    0.529373
O      1.699500    2.496167    0.395407
C      1.580855    1.439041   -0.530139
C      2.580881    0.354017   -0.257752
C      3.932976    0.669245   -0.044483
C      4.865924   -0.348768    0.177213
C      4.457985   -1.685642    0.173490
C      3.117517   -2.006724   -0.058189
C      2.181839   -0.991422   -0.280240
C     -1.771577    1.648405   -0.616643
C     -1.797142    0.241669   -0.657532
C     -2.825446   -0.435621   -1.329934
C     -2.847846   -1.838821   -1.374707
C     -3.877263   -2.503241   -2.047595
C     -4.889613   -1.775344   -2.678483
C     -4.879511   -0.378069   -2.640532
C     -3.851127    0.300828   -1.968246
C     -3.830395    1.700660   -1.920615
C     -2.801607    2.367270   -1.250269
H      0.592021    1.078900    1.470019
H      1.403080    1.807691   -1.562801
H      4.263421    1.700569   -0.049364
H      5.905717   -0.101471    0.347954
H      5.181287   -2.472595    0.343741
H      2.804185   -3.042651   -0.070286
H      1.150248   -1.254743   -0.471651
H     -1.027593   -0.330483   -0.156691
H     -2.070961   -2.419775   -0.891850
H     -3.890369   -3.585038   -2.080212
H     -5.684185   -2.295311   -3.197912
H     -5.672828    0.170151   -3.134639
H     -4.608487    2.280250   -2.403158
H     -2.808511    3.450062   -1.235568
