47

C     -3.354081   -0.755714   -2.839070
C     -2.534468   -0.737787   -1.539816
C     -1.196405   -1.457390   -1.786163
C     -3.339910   -1.447525   -0.434202
O     -2.304685    0.637725   -1.201776
C     -1.596279    1.110745   -0.087672
O     -1.164684    0.318388    0.793030
N     -1.368600    2.518195    0.037663
C     -0.626275    3.111338    1.148153
C      0.866313    3.215855    0.819141
C      1.545715    1.872292    0.844905
C      1.909632    1.051399   -0.228719
N      2.530737   -0.064307    0.214651
C      2.555141    0.017272    1.563065
C      1.958858    1.187138    1.976402
C      1.846522    1.518129    3.327756
C      2.358572    0.614065    4.273086
C      2.965072   -0.588703    3.855590
C      3.068188   -0.900173    2.488318
C      3.022063   -1.086742   -0.668334
O      3.707532   -2.049023   -0.232697
C      2.657041   -1.031746   -2.128893
C      2.494621    0.416504   -2.634558
C      1.720317    1.277209   -1.671980
O      0.971378    2.193048   -2.102822
H     -2.802767   -0.232557   -3.650012
H     -3.559719   -1.797890   -3.166910
H     -4.323784   -0.233642   -2.689905
H     -0.587931   -1.508128   -0.859843
H     -1.369219   -2.496942   -2.139096
H     -0.612088   -0.912755   -2.558115
H     -4.253628   -0.863891   -0.191604
H     -3.646007   -2.463461   -0.765297
H     -2.743056   -1.566116    0.492621
H     -1.729005    3.148760   -0.713313
H     -0.789237    2.533738    2.084140
H     -1.017438    4.136123    1.326654
H      1.350739    3.868622    1.576561
H      1.008258    3.717507   -0.159370
H      1.376852    2.439904    3.645123
H      2.285042    0.841265    5.328622
H      3.352813   -1.278533    4.593901
H      3.529465   -1.827897    2.185129
H      3.439400   -1.540753   -2.732355
H      1.705789   -1.583667   -2.272478
H      1.985487    0.401408   -3.622499
H      3.500340    0.868148   -2.773499
