34

C     -1.567915   -0.082029    0.519190
C     -1.130618   -0.494537   -0.909757
C      0.327400    0.035854   -1.175977
C      0.752824   -0.168709   -2.607339
O      1.483789   -1.150079   -2.917292
O      0.271594    0.692030   -3.599054
C      0.605386    0.541250   -4.973307
C      1.286539   -0.606066   -0.149747
C      0.882223    0.153100    1.138481
C      1.934687    0.055869    2.243316
O      0.740863    1.491881    0.659415
C      0.454840    1.456093   -0.702485
O      0.222427    2.486249   -1.388701
C     -0.497271   -0.453937    1.544343
C     -1.169728   -0.137072    2.878466
C     -2.620710   -0.631059    2.659135
C     -2.776212   -0.636195    1.165167
O     -3.792864   -0.965308    0.575151
H     -1.737301    1.019337    0.519437
H     -1.160511   -1.601414   -1.013706
H     -1.837278   -0.055797   -1.647494
H      0.255281   -0.445611   -5.343423
H      1.704513    0.625069   -5.108805
H      0.108653    1.341755   -5.558871
H      1.170672   -1.711095   -0.082521
H      2.347512   -0.383677   -0.411414
H      2.069859   -1.002140    2.553544
H      2.907414    0.452468    1.882653
H      1.617882    0.653659    3.123587
H     -0.375342   -1.566315    1.547792
H     -0.681267   -0.672660    3.721009
H     -1.155033    0.959384    3.066074
H     -3.354248    0.055077    3.133424
H     -2.744802   -1.663272    3.051511
