108

C      1.116133   -0.703764   -3.260629
C      1.194811   -1.948045   -4.190345
C      1.946522   -1.683243   -5.514950
C      3.448750   -1.408713   -5.262634
C      1.838299   -2.940853   -6.403838
C      1.274932   -0.497520   -6.245104
C      1.189483    0.767655   -5.379910
C      0.590139    0.545749   -3.963333
C     -0.911639    0.242836   -3.968663
O     -1.196808   -0.545336   -2.828205
C      0.027325   -0.814430   -2.156073
C     -0.090137   -2.211746   -1.537537
C     -0.434216   -2.440113   -0.252516
C     -0.454896   -1.345733    0.807184
C     -1.175325   -1.740583    2.158129
C     -2.671774   -2.097283    1.934691
C     -0.459280   -3.031388    2.737850
C     -0.254495   -3.052574    4.259949
C     -1.329119   -2.280621    4.957883
O     -2.026580   -2.842955    5.793492
C     -1.517512   -0.803424    4.642627
C     -3.016444   -0.432116    4.828135
C     -0.680173    0.049903    5.655024
O     -0.681806   -0.516852    6.971047
C      0.385167   -1.268540    7.486944
O      1.453867   -1.382070    6.825016
C      0.256071   -1.982629    8.819804
C      1.503881   -1.699898    9.680285
C     -0.995663   -1.497206    9.582274
C      0.144237   -3.497640    8.562929
C     -0.992423   -0.537387    3.166909
C     -1.449755    0.818865    2.577590
C     -0.711155    1.168331    1.269651
C     -0.797836    0.054284    0.171345
C     -2.272256    0.052966   -0.371130
C      0.273480    0.284865   -1.024008
C      1.755722    0.151466   -0.492518
C      0.175964    1.712227   -1.668013
C      0.868751    1.803675   -3.058840
O      0.417295    2.994337   -3.713776
C      1.269630    3.905062   -4.357632
O      2.521411    3.809435   -4.219101
C      0.679544    5.053596   -5.153085
C     -0.708338    4.660663   -5.703889
C      0.538292    6.275277   -4.226784
C      1.602804    5.408038   -6.338264
H      2.140316   -0.551707   -2.872884
H      0.168170   -2.306291   -4.425325
H      1.709343   -2.770957   -3.646962
H      3.612790   -0.524600   -4.613829
H      3.926444   -2.285913   -4.770974
H      3.972445   -1.223658   -6.228285
H      0.775011   -3.190938   -6.615728
H      2.297590   -3.819563   -5.899281
H      2.357092   -2.780661   -7.374402
H      0.251079   -0.780249   -6.569122
H      1.838849   -0.255820   -7.172787
H      0.578699    1.520050   -5.925965
H      2.208433    1.197481   -5.289889
H     -1.525211    1.167776   -3.956419
H     -1.214082   -0.327303   -4.868796
H     -0.119448   -3.073301   -2.196006
H     -0.635613   -3.465077    0.040246
H      0.599055   -1.279418    1.130852
H     -3.322431   -1.208839    1.875330
H     -3.058594   -2.719321    2.770771
H     -2.808450   -2.697032    1.010014
H      0.548955   -3.181037    2.290110
H     -1.024132   -3.948496    2.449897
H      0.723979   -2.588518    4.508528
H     -0.223349   -4.105359    4.624957
H     -3.332330   -0.607089    5.880612
H     -3.197860    0.643054    4.618665
H     -3.681693   -1.034507    4.182918
H      0.368306    0.196647    5.312222
H     -1.102415    1.074102    5.722378
H      1.425856   -2.215851   10.663171
H      2.426283   -2.065662    9.175546
H      1.616162   -0.606239    9.860187
H     -1.922761   -1.714479    9.003954
H     -0.942769   -0.398607    9.767105
H     -1.073580   -2.012334   10.565713
H     -0.765881   -3.726430    7.964077
H      1.033453   -3.868243    8.004523
H      0.077865   -4.050757    9.527586
H      0.114278   -0.436619    3.251971
H     -1.227961    1.626339    3.307087
H     -2.544548    0.847481    2.424014
H      0.329508    1.403543    1.556225
H     -1.134171    2.117948    0.870873
H     -3.022837    0.313539    0.390752
H     -2.569917   -0.934029   -0.780542
H     -2.449312    0.807319   -1.153086
H      2.091296   -0.905187   -0.472477
H      2.495374    0.695413   -1.110680
H      1.916377    0.560362    0.519432
H      0.629783    2.466651   -0.991904
H     -0.870267    2.041946   -1.786918
H      1.963492    1.874090   -2.883402
H     -1.137713    5.489658   -6.310864
H     -0.628718    3.758545   -6.352031
H     -1.418407    4.436949   -4.876621
H      1.532015    6.563535   -3.818964
H     -0.134052    6.039265   -3.372538
H      0.119576    7.140676   -4.780326
H      1.749643    4.520393   -6.994276
H      1.163216    6.230211   -6.946732
H      2.600966    5.744950   -5.976327
