42

C      0.289731   -1.183240   -0.568898
C     -0.877165   -1.318798    0.455196
C     -0.556379   -0.930192    1.924618
C      0.844167   -1.340993    2.267381
O      1.078973   -2.408216    2.812924
C      1.947769   -0.401032    1.897667
C      1.405174    0.713197    0.943788
C      2.499452    1.792293    0.835690
O      0.229010    1.379381    1.422139
C     -0.680690    0.605275    2.201946
C     -2.112854    1.110895    1.907501
C     -0.433783    0.910017    3.703379
C      1.158929    0.093863   -0.477084
C      0.655461    1.029071   -1.583326
O     -0.410480    1.843806   -1.158837
C      0.237319    0.082253   -2.710525
C     -0.236841   -1.214638   -2.031107
C      0.241383   -2.458458   -2.791247
H      0.963610   -2.053952   -0.390953
H     -1.177830   -2.389986    0.455553
H     -1.775947   -0.784480    0.099657
H     -1.267058   -1.469088    2.591782
H      2.380025    0.034827    2.822969
H      2.759658   -0.971973    1.395459
H      2.711078    2.226058    1.836767
H      2.168958    2.623962    0.178541
H      3.443460    1.368821    0.429317
H     -2.254707    2.142742    2.296017
H     -2.325437    1.171499    0.826048
H     -2.870188    0.452628    2.385358
H      0.575002    0.610739    4.042853
H     -0.524257    2.000448    3.898659
H     -1.175633    0.376957    4.336837
H      2.166773   -0.231798   -0.833178
H      1.477133    1.688587   -1.938777
H     -1.233366    1.292366   -1.133539
H      1.122438   -0.109580   -3.358170
H     -0.562076    0.526543   -3.343497
H     -1.349420   -1.223684   -2.056530
H     -0.145728   -3.374584   -2.296545
H     -0.138854   -2.435800   -3.834772
H      1.351650   -2.503779   -2.813006
