69

C     -1.498506    1.115708    3.111935
O     -1.195963    0.601386    1.821285
C     -2.012216   -0.329375    1.172364
O     -3.088972   -0.718491    1.704101
C     -1.591951   -0.861661   -0.177077
N     -1.859706   -2.298338   -0.260313
C     -1.236949   -3.259658    0.605744
O     -1.517648   -4.482617    0.488143
O     -0.319867   -2.818789    1.573102
C      0.399754   -3.638059    2.505349
C     -0.574273   -4.370437    3.447384
C      1.285858   -2.699831    3.338861
C      1.298589   -4.643925    1.761862
C     -2.637941   -2.677814   -1.422603
C     -2.867146   -1.398735   -2.128687
O     -3.439612   -1.342264   -3.207387
C     -2.298493   -0.196488   -1.418999
C     -1.239651    0.480948   -2.341325
C     -0.619286    1.751829   -1.739593
O      0.629425    1.981556   -2.347577
Si     1.398668    3.390024   -1.675590
C      2.727712    3.871808   -2.899833
C      0.220594    4.846354   -1.582172
C      2.184128    3.030651    0.033051
C      3.460234    3.875985    0.205129
C      1.199878    3.394681    1.161959
C      2.550322    1.536969    0.128025
C     -3.460329    0.777290   -1.036667
C     -4.128568    1.430255   -2.223587
C     -5.330383    1.043530   -2.660795
H     -2.478702    1.639129    3.092452
H     -1.527606    0.288361    3.852532
H     -0.711532    1.838604    3.410573
H     -0.488015   -0.730798   -0.245052
H     -1.268030   -3.643983    3.924826
H     -0.016761   -4.904730    4.246873
H     -1.177827   -5.123445    2.900582
H      0.659350   -1.967567    3.894170
H      1.897987   -3.273246    4.070269
H      1.971985   -2.130514    2.675285
H      1.956214   -5.183301    2.477388
H      0.697053   -5.404382    1.223037
H      1.936575   -4.112443    1.024344
H     -2.057132   -3.372148   -2.066805
H     -3.602130   -3.130862   -1.110087
H     -0.428927   -0.253165   -2.556155
H     -1.688996    0.739085   -3.325493
H     -1.313789    2.599672   -1.930633
H     -0.499556    1.616100   -0.647147
H      2.272285    4.001408   -3.903758
H      3.495198    3.073937   -2.950752
H      3.199296    4.825834   -2.588053
H     -0.220921    5.025620   -2.583812
H      0.776900    5.749434   -1.257417
H     -0.590753    4.638279   -0.854687
H      4.234962    3.586144   -0.536497
H      3.893019    3.727727    1.217476
H      3.234314    4.957063    0.077915
H      1.635153    3.147074    2.153947
H      0.245221    2.841960    1.066389
H      0.974448    4.483359    1.151210
H      3.252874    1.249753   -0.685088
H      3.039524    1.319018    1.103514
H      1.645795    0.898732    0.053548
H     -3.070081    1.590998   -0.389830
H     -4.222961    0.231142   -0.438300
H     -3.617156    2.234664   -2.742613
H     -5.781249    1.535370   -3.515714
H     -5.871579    0.237681   -2.174987
