17

C     -0.649737   -3.144604   -0.852269
C      0.683842   -2.584808   -1.248065
O      1.662148   -3.375677   -1.338842
C      0.876125   -1.137066   -1.532200
C     -0.193712   -0.223051   -1.441101
C      0.006823    1.134124   -1.712069
C      1.272356    1.597925   -2.076467
F      1.463127    2.914436   -2.338463
C      2.341164    0.704634   -2.170773
C      2.147184   -0.653538   -1.901126
H     -0.993753   -2.668918    0.089922
H     -1.390630   -2.959242   -1.657915
H     -0.578806   -4.240790   -0.686290
H     -1.186694   -0.548157   -1.161631
H     -0.822048    1.826544   -1.638878
H      3.322610    1.063472   -2.453230
H      2.993500   -1.324146   -1.981901
