67

C      3.848861    2.278543   -1.149625
C      2.594913    3.076221   -1.553468
C      2.894116    3.859796   -2.840072
C      2.207601    4.073779   -0.444421
O      1.509661    2.184286   -1.845724
C      0.913431    1.279613   -0.954697
O      1.251981    1.254461    0.259127
N     -0.088700    0.364861   -1.436115
C     -0.559943    0.320077   -2.799709
C     -1.662804    1.371647   -3.050182
C     -1.106596    2.766896   -3.170467
O     -0.476102    3.059229   -4.223446
C     -1.280244    3.805489   -2.118416
C     -1.069451    5.161363   -2.438485
C     -1.210759    6.153751   -1.463988
C     -1.557528    5.807824   -0.157178
C     -1.763083    4.468612    0.177680
C     -1.626967    3.472271   -0.793439
C     -1.111976   -1.100130   -2.916962
O     -1.301132   -1.624007   -1.619496
C     -0.510953   -0.847386   -0.747657
C     -1.249214   -0.553648    0.525382
O     -2.343458    0.068041    0.580869
N     -0.594579   -1.090843    1.676160
C     -1.212400   -1.296108    2.986016
C     -2.001983   -2.578025    2.994951
C     -1.422981   -3.768948    3.465139
C     -2.146257   -4.965208    3.432378
C     -3.448591   -4.983015    2.926179
C     -4.029808   -3.804238    2.451553
C     -3.310009   -2.605931    2.482608
C      0.551655   -1.761873    1.161813
C      1.527888   -2.442593    1.894693
C      2.603505   -3.022363    1.201172
Br     3.957766   -3.962134    2.164567
C      2.691090   -2.906489   -0.200472
C      1.705777   -2.210412   -0.917727
C      0.642010   -1.645215   -0.212497
H      4.087765    1.520965   -1.926514
H      3.696953    1.751115   -0.185567
H      4.722475    2.955592   -1.033084
H      3.737657    4.567863   -2.689343
H      1.998744    4.437990   -3.155227
H      3.159883    3.161909   -3.663064
H      3.004589    4.836865   -0.311620
H      2.065671    3.567111    0.531114
H      1.265141    4.594981   -0.708101
H      0.284149    0.451973   -3.513758
H     -2.453354    1.305279   -2.274214
H     -2.163619    1.140415   -4.015706
H     -0.798229    5.456746   -3.444331
H     -1.047709    7.192080   -1.722346
H     -1.662128    6.576990    0.597013
H     -2.022112    4.200171    1.193758
H     -1.768279    2.446863   -0.490229
H     -2.071788   -1.141924   -3.475143
H     -0.381881   -1.742703   -3.455809
H     -1.879892   -0.439039    3.221438
H     -0.429603   -1.311536    3.773883
H     -0.415402   -3.773177    3.859492
H     -1.696195   -5.879070    3.798153
H     -4.006718   -5.910009    2.900773
H     -5.037719   -3.819104    2.057379
H     -3.772449   -1.701692    2.108199
H      1.470666   -2.513362    2.971668
H      3.523955   -3.350614   -0.729978
H      1.773849   -2.109579   -1.992942
