35

C     -2.160912   -4.133719    0.736041
C     -1.368836   -3.300023   -0.225547
O     -0.406883   -3.792475   -0.794868
C     -1.753522   -1.873340   -0.508047
N     -1.751866   -1.069682    0.730978
C     -2.493106    0.191033    0.522809
C     -2.830919    0.843939    1.834097
C     -3.612507    0.239751    2.733204
S     -0.105709   -0.740719    1.253992
O      0.612954   -2.034930    1.516390
O     -0.126837    0.031502    2.543867
C      0.799280    0.182607    0.051350
C      1.536868   -0.479861   -0.939649
C      2.252730    0.251000   -1.892267
C      2.253096    1.653634   -1.853887
C      2.987762    2.438256   -2.899961
C      1.504823    2.315820   -0.868772
C      0.789302    1.584013    0.083379
H     -3.013543   -3.556164    1.151974
H     -1.506894   -4.458054    1.572283
H     -2.557794   -5.029175    0.213684
H     -2.773569   -1.908541   -0.949996
H     -1.085214   -1.426393   -1.275890
H     -1.914803    0.894188   -0.113403
H     -3.457331   -0.000020    0.001198
H     -2.437712    1.833092    2.049194
H     -3.844380    0.734210    3.670786
H     -4.022575   -0.747455    2.541764
H      1.551569   -1.561402   -0.980787
H      2.806692   -0.276697   -2.658856
H      3.883087    1.881760   -3.250331
H      2.314939    2.622456   -3.763333
H      3.328233    3.413451   -2.491149
H      1.475544    3.398019   -0.837437
H      0.220744    2.110652    0.839295
