35

C      1.307101    2.464853   -0.377750
C      0.001379    1.728959   -0.435879
O     -0.418747    1.346797   -1.517411
C     -0.814840    1.477920    0.804470
N     -1.008775    0.029898    1.028934
C     -2.095804   -0.203608    2.001063
C     -2.684458   -1.573804    1.806377
C     -3.648693   -2.029332    2.609423
S      0.477621   -0.708934    1.609111
O      1.117826    0.171945    2.647367
O      0.194853   -2.050154    2.227048
C      1.587208   -0.959669    0.265849
C      2.947432   -0.645944    0.393200
C      3.817580   -0.842252   -0.683311
C      3.335034   -1.348401   -1.900004
C      4.274967   -1.592176   -3.043008
C      1.978846   -1.690160   -2.014543
C      1.109946   -1.494573   -0.937317
H      1.214338    3.426031   -0.924857
H      1.605851    2.675537    0.670273
H      2.101164    1.855079   -0.856332
H     -0.363165    1.964525    1.696141
H     -1.793025    1.978536    0.632036
H     -1.728458   -0.086162    3.045763
H     -2.926695    0.522458    1.856743
H     -2.324818   -2.208418    1.000873
H     -4.061862   -3.020636    2.454091
H     -4.030729   -1.420519    3.423461
H      3.335958   -0.247361    1.321227
H      4.866384   -0.597657   -0.568726
H      4.692586   -2.617627   -2.965162
H      5.109131   -0.858711   -3.027311
H      3.745684   -1.488923   -4.014218
H      1.594100   -2.106472   -2.937346
H      0.064227   -1.755411   -1.041760
