41

C      0.973505   -0.665459   -3.803519
N      0.141971   -1.132264   -2.699672
C      0.601936   -1.385935   -1.372715
O      1.814506   -1.577196   -1.090283
C     -0.508735   -1.393781   -0.361368
O     -0.643931   -2.663416    0.233121
C     -0.304620   -2.478132    1.570768
C     -0.423366   -0.994478    1.830704
C      0.630366   -0.448272    2.814481
C      2.038964   -0.493886    2.268397
O      2.786965   -1.434649    2.651736
C      2.565934    0.498246    1.286745
C      1.846795    1.661806    0.940136
C      2.356296    2.557790   -0.004597
C      3.589046    2.313786   -0.610795
C      4.318090    1.173759   -0.271521
C      3.814182    0.273017    0.671177
O     -0.329622   -0.369999    0.588473
C     -1.672341   -1.089602   -1.251830
C     -3.011722   -0.926590   -0.893530
C     -3.938577   -0.597039   -1.895411
C     -3.515973   -0.429391   -3.228439
C     -2.163697   -0.592220   -3.570692
C     -1.258031   -0.928061   -2.560171
H      1.977015   -1.137466   -3.750969
H      1.085047    0.437497   -3.745552
H      0.510170   -0.941423   -4.773051
H      0.727011   -2.856677    1.732989
H     -1.002866   -3.049193    2.219309
H     -1.433475   -0.784085    2.248662
H      0.581617   -1.045150    3.751886
H      0.367937    0.588308    3.108988
H      0.889169    1.888787    1.384643
H      1.792586    3.443663   -0.267357
H      3.979958    3.008928   -1.342495
H      5.274532    0.985068   -0.741832
H      4.398041   -0.607745    0.907243
H     -3.328269   -1.045460    0.134603
H     -4.982166   -0.465756   -1.640787
H     -4.237081   -0.171762   -3.993196
H     -1.840166   -0.461489   -4.594360
