41

C     -1.623649   -3.358816    3.941731
N     -0.561803   -2.645832    3.240298
C     -0.182930   -2.853412    1.879688
O     -0.512666   -3.875307    1.220467
C      0.623684   -1.717365    1.320159
O      1.932293   -2.133940    1.007682
C      2.051785   -1.962288   -0.368676
C      0.940876   -1.024616   -0.772742
C      0.349077   -1.380685   -2.144558
C     -0.705800   -0.386289   -2.554416
O     -1.911812   -0.681604   -2.331237
C     -0.377798    0.930009   -3.172932
C      0.955463    1.349120   -3.367803
C      1.232681    2.590995   -3.947675
C      0.190099    3.431000   -4.341000
C     -1.133849    3.031822   -4.154732
C     -1.418400    1.791851   -3.575102
O     -0.032079   -1.131885    0.220073
C      0.622876   -0.792889    2.497975
C      1.186100    0.480949    2.594863
C      1.034786    1.191439    3.796422
C      0.324384    0.625735    4.873025
C     -0.238076   -0.655930    4.757718
C     -0.069886   -1.349906    3.555937
H     -1.433407   -3.345475    5.034748
H     -1.657626   -4.417098    3.607990
H     -2.600360   -2.876061    3.729400
H      1.960157   -2.955691   -0.861406
H      3.044451   -1.526219   -0.611075
H      1.327391    0.019063   -0.780723
H     -0.106544   -2.394817   -2.095404
H      1.148772   -1.430475   -2.913371
H      1.791264    0.731721   -3.072079
H      2.259266    2.902883   -4.091061
H      0.408241    4.391620   -4.789468
H     -1.942081    3.684021   -4.459737
H     -2.455229    1.508703   -3.443758
H      1.723549    0.913975    1.761236
H      1.462861    2.180590    3.894072
H      0.210179    1.182348    5.794109
H     -0.784754   -1.088695    5.584527
