49

O      3.750953   -3.894272   -2.411506
C      3.200906   -2.978907   -1.740083
C      3.657181   -1.577979   -1.920607
C      3.570311   -0.645501   -0.868555
C      4.010297    0.669079   -1.049917
C      4.551072    1.064301   -2.275428
C      4.657256    0.144194   -3.320916
C      4.217639   -1.171654   -3.145304
C      2.130574   -3.343716   -0.782347
C      2.257202   -4.512620   -0.014770
C      1.255336   -4.878732    0.885792
C      0.120101   -4.080686    1.034609
C     -0.024341   -2.906127    0.284176
N     -1.206434   -2.107015    0.450832
C     -1.178842   -0.673249    0.538010
O     -0.079471   -0.071489    0.674554
C     -2.436760    0.100367    0.464733
C     -3.605640   -0.344912   -0.123167
C     -4.449517    0.748511   -0.080621
C     -5.867390    0.778224   -0.554755
F     -6.290067    2.086394   -0.706631
F     -5.970634    0.128060   -1.770992
F     -6.674509    0.144734    0.371218
N     -3.832300    1.783909    0.520484
N     -2.611194    1.389276    0.847287
C     -1.690570    2.236569    1.552076
C     -1.481826    3.554926    1.118300
C     -0.606250    4.398154    1.815410
C     -0.384428    5.744725    1.357564
N     -0.206104    6.827257    0.989396
C      0.051239    3.929156    2.959582
C     -0.171572    2.624751    3.408898
C     -1.044456    1.782947    2.714069
C      0.967618   -2.557883   -0.653165
F      0.767282   -1.503426   -1.485887
H      3.172755   -0.933880    0.096276
H      3.936206    1.380561   -0.237573
H      4.892001    2.082224   -2.413482
H      5.080230    0.450641   -4.268923
H      4.304394   -1.868358   -3.969940
H      3.136257   -5.138686   -0.107829
H      1.361652   -5.781027    1.474126
H     -0.645521   -4.371607    1.742951
H     -2.101766   -2.597574    0.674037
H     -3.807860   -1.316043   -0.555856
H     -1.992857    3.916195    0.233352
H      0.729460    4.572948    3.506718
H      0.328224    2.267540    4.300006
H     -1.224398    0.781713    3.084568
