39

C      0.953501    5.972868   -1.362718
O      2.270029    5.465560   -1.554985
C      2.639372    4.125149   -1.366576
C      1.720978    3.139198   -0.956604
C      2.132705    1.805513   -0.777561
C      1.161223    0.767996   -0.346220
C     -0.138185    0.738277   -0.881703
C     -1.051325   -0.238830   -0.476303
C     -0.681793   -1.213756    0.466010
C     -1.647799   -2.244616    0.917750
O     -1.585469   -2.655860    2.108772
C     -2.684227   -2.809618    0.019621
C     -2.437864   -2.978334   -1.356100
C     -3.417868   -3.528859   -2.187715
C     -4.646682   -3.925810   -1.655358
C     -4.895864   -3.778360   -0.288897
C     -3.918984   -3.228576    0.547122
C      0.610206   -1.173985    1.014493
C      1.524342   -0.197851    0.608393
C      3.477222    1.467970   -1.012759
C      4.392484    2.444727   -1.420332
C      5.765980    2.088117   -1.663527
N      6.869980    1.801394   -1.858977
C      3.971871    3.767162   -1.595865
H      0.947475    7.059278   -1.586335
H      0.244199    5.464548   -2.049606
H      0.637624    5.825378   -0.308350
H      0.692111    3.407001   -0.758294
H     -0.445593    1.464025   -1.624190
H     -2.050861   -0.223895   -0.892190
H     -1.483959   -2.699444   -1.785580
H     -3.221801   -3.653406   -3.244866
H     -5.403570   -4.352692   -2.300616
H     -5.846540   -4.090923    0.123480
H     -4.131752   -3.119987    1.603539
H      0.916518   -1.905054    1.752671
H      2.510769   -0.187917    1.054937
H      3.809423    0.442734   -0.896505
H      4.679566    4.524758   -1.911956
