39

C      4.015514   -3.415566    2.435792
O      4.560484   -2.100186    2.416990
C      3.904979   -0.977041    1.890230
C      2.617644   -1.050643    1.323673
C      1.994244    0.100553    0.807506
C      0.636856    0.019222    0.209803
C     -0.318718    1.016937    0.469233
C     -1.595699    0.940982   -0.093299
C     -1.941124   -0.128173   -0.937402
C     -3.298567   -0.228685   -1.526623
O     -3.800252   -1.372196   -1.706187
C     -4.087339    0.966721   -1.912543
C     -5.491441    0.937614   -1.834679
C     -6.244563    2.053645   -2.212515
C     -5.605942    3.203897   -2.681695
C     -4.213019    3.238484   -2.779263
C     -3.455390    2.125327   -2.402508
C     -0.992711   -1.133969   -1.183508
C      0.284386   -1.058887   -0.620667
C      2.674143    1.329956    0.865270
C      3.953268    1.406940    1.427202
C      4.643292    2.669548    1.477145
N      5.197858    3.684473    1.517260
C      4.563558    0.256006    1.936561
H      3.814727   -3.760663    1.399499
H      4.747878   -4.104644    2.903918
H      3.079511   -3.432622    3.033144
H      2.090576   -1.994670    1.298668
H     -0.085976    1.845425    1.126487
H     -2.318736    1.710212    0.147099
H     -6.004579    0.055868   -1.470958
H     -7.324289    2.026085   -2.142044
H     -6.190643    4.066257   -2.974822
H     -3.719746    4.126460   -3.153030
H     -2.378692    2.165357   -2.508719
H     -1.234898   -1.972302   -1.825185
H      1.002447   -1.836334   -0.849765
H      2.217193    2.224390    0.457622
H      5.554493    0.313991    2.371746
