21

O     -0.821409    2.595948    1.319580
C     -0.500841    1.378446    1.248890
C      0.805036    1.019861    0.658793
C      1.853442    1.903861    0.424705
C      2.954660    1.308267   -0.202737
C      2.778075   -0.040661   -0.479464
S      1.249503   -0.489884    0.055442
C     -1.454349    0.357890    1.739170
C     -2.835403    0.542882    1.550515
C     -3.747346   -0.405545    2.024199
C     -3.291118   -1.539218    2.700955
C     -1.922426   -1.723068    2.911283
C     -1.006710   -0.777713    2.438866
H      1.826716    2.951141    0.696446
H      3.856271    1.850233   -0.455086
H      3.498079   -0.686376   -0.963532
H     -3.206750    1.414980    1.026298
H     -4.808433   -0.260677    1.867254
H     -3.998395   -2.271445    3.068467
H     -1.570824   -2.594911    3.447746
H      0.046675   -0.923609    2.640320
