21

O      2.027781    0.315913   -0.295520
C      0.818363    0.612933   -0.097621
C      0.497238    1.676158    0.876311
C      1.405779    2.590364    1.399942
C      0.844631    3.450187    2.352260
C     -0.501273    3.212256    2.595786
S     -0.990699    1.929540    1.626480
C     -0.230278   -0.130168   -0.831953
C     -1.371664    0.525138   -1.329303
C     -2.344029   -0.188421   -2.036938
C     -2.181863   -1.557041   -2.264822
C     -1.043055   -2.213393   -1.791883
C     -0.067661   -1.503848   -1.084293
H      2.446388    2.636932    1.106143
H      1.408861    4.223136    2.856740
H     -1.122806    3.754556    3.295274
H     -1.501704    1.590769   -1.191434
H     -3.220140    0.322004   -2.415643
H     -2.935006   -2.107341   -2.813830
H     -0.915123   -3.272558   -1.974428
H      0.808080   -2.029256   -0.723354
