54

C      2.576702    2.518031    2.861698
O      2.063701    3.210954    1.747013
C      2.653388    2.706301    0.567969
O      1.945082    3.202113   -0.567106
C      0.613611    2.882755   -0.881438
C      0.046511    3.452645   -2.020725
C     -1.264030    3.150674   -2.385599
C     -2.043103    2.270144   -1.615283
C     -3.448306    1.961089   -2.086405
C     -4.464663    2.809310   -1.370337
C     -4.548393    4.130258   -1.565610
C     -1.498618    1.715141   -0.424655
C     -2.300831    0.731128    0.420943
C     -1.860479    0.665575    1.863924
O     -2.157418    1.629984    2.618870
C     -1.033407   -0.459648    2.385770
C     -0.127196   -1.109621    1.527355
C      0.726570   -2.123444    1.997261
O      1.662211   -2.756717    1.160137
C      1.874094   -2.434717   -0.213169
O      2.393666   -1.124426   -0.312547
C      2.325033   -0.690461   -1.651991
C      0.656456   -2.519763    3.338293
O      1.516310   -3.539024    3.778693
C      1.550928   -4.047528    5.108160
C     -0.263293   -1.894684    4.198402
C     -1.101298   -0.874142    3.736074
Br    -2.360470   -0.145216    4.991432
C     -0.158662    2.013831   -0.092067
H      2.150372    2.963452    3.784360
H      3.684209    2.611752    2.922077
H      2.275217    1.446265    2.837457
H      2.652320    1.592840    0.533271
H      3.705331    3.057789    0.499541
H      0.630156    4.127611   -2.634340
H     -1.670361    3.600477   -3.283519
H     -3.543125    2.125723   -3.182874
H     -3.678272    0.887118   -1.920643
H     -5.166755    2.330726   -0.692828
H     -5.302435    4.710727   -1.041872
H     -3.872404    4.640205   -2.246256
H     -3.370365    1.024309    0.435964
H     -2.256366   -0.274364   -0.049134
H     -0.064807   -0.805389    0.494116
H      2.609349   -3.157620   -0.627853
H      0.911878   -2.557625   -0.763311
H      1.267114   -0.565676   -1.975004
H      2.816210    0.301116   -1.728636
H      2.862091   -1.388476   -2.334588
H      2.320821   -4.843505    5.171760
H      0.565957   -4.484061    5.375901
H      1.817431   -3.238179    5.820440
H     -0.338397   -2.196587    5.234396
H      0.287850    1.571676    0.784022
