40

O      2.321656    1.361487   -0.206700
C      1.322013    0.654054    0.094741
C      1.462137   -0.384691    1.142124
C      2.516014   -0.335637    2.066366
C      2.639934   -1.346509    3.019064
C      1.721591   -2.396673    3.048799
C      0.670435   -2.423176    2.114497
C     -0.337844   -3.509392    2.075886
C     -0.591763   -4.346909    3.179444
C     -1.565643   -5.342872    3.077317
C     -2.283465   -5.496933    1.891644
C     -2.019574   -4.643546    0.820407
N     -1.067384   -3.680248    0.936556
N      0.587098   -1.427206    1.188847
C      0.059705    0.870432   -0.645313
N      0.118064    1.340892   -1.921987
C     -0.993366    1.579465   -2.673611
C     -0.819127    2.092867   -4.053355
N      0.370245    2.668602   -4.389766
C      0.615280    3.156176   -5.635000
C     -0.365396    3.071709   -6.623330
C     -1.589436    2.477035   -6.318489
C     -1.823556    1.980490   -5.034222
C     -2.260364    1.359839   -2.103826
C     -2.351779    0.895621   -0.791509
C     -1.194271    0.651690   -0.053557
H      3.235072    0.473952    2.052349
H      3.454372   -1.320191    3.731591
H      1.857368   -3.182501    3.777986
H     -0.070853   -4.227282    4.118600
H     -1.768983   -5.990300    3.920594
H     -3.041085   -6.265094    1.805990
H     -2.572247   -4.745176   -0.103950
H      1.572585    3.608343   -5.857103
H     -0.176063    3.456929   -7.616890
H     -2.354700    2.393761   -7.079448
H     -2.767983    1.496248   -4.830314
H     -3.172688    1.572331   -2.642811
H     -3.323024    0.740219   -0.339560
H     -1.283897    0.328527    0.975131
