19

C     -2.511543   -1.507189    1.332963
C     -1.366333   -1.516483    0.299578
C     -0.298225   -2.529196    0.775894
C     -0.708018   -0.123126    0.231378
C     -1.903180   -1.913933   -1.078719
O     -1.456458   -2.948460   -1.647153
C     -2.937386   -1.138133   -1.797192
O     -3.369313   -1.570637   -3.047748
O     -3.435230   -0.093633   -1.299925
H     -3.025290   -2.492754    1.351666
H     -2.117497   -1.299969    2.351568
H     -3.264026   -0.725279    1.104575
H     -0.731277   -3.550316    0.852981
H      0.096975   -2.247943    1.776294
H      0.556961   -2.561695    0.066132
H      0.084566   -0.106185   -0.547819
H     -0.243546    0.138142    1.206966
H     -1.447320    0.668899   -0.005062
H     -4.076426   -1.057107   -3.560224
