19

C     -1.207720    0.707360    0.590428
C     -0.118147    0.948298   -0.474586
C      1.275873    0.930321    0.185611
C     -0.343319    2.353011   -1.082367
C     -0.199365   -0.125143   -1.564082
O     -0.424568    0.214712   -2.758530
C     -0.025251   -1.568268   -1.290718
O     -0.114764   -2.477605   -2.340767
O      0.202468   -1.990960   -0.126424
H     -1.209187    1.527455    1.340902
H     -1.042448   -0.242081    1.139083
H     -2.212085    0.667243    0.115806
H      1.459301   -0.017493    0.731302
H      1.371384    1.759118    0.920282
H      2.070426    1.051705   -0.582228
H     -0.285960    3.138633   -0.297770
H      0.429127    2.577806   -1.849802
H     -1.344876    2.418548   -1.560646
H      0.000657   -3.471157   -2.179874
