25

C      1.207124    1.378321    4.111726
O      0.198757    1.278858    3.111242
C      0.451906    1.106031    1.741070
C     -0.640784    1.023798    0.866319
O     -1.933337    1.118725    1.407031
C     -3.135228    1.052841    0.646219
C     -0.417923    0.850396   -0.514124
C      0.888112    0.758192   -1.030044
C      1.101688    0.575052   -2.492009
C      2.474674    0.471799   -3.086215
O      0.108442    0.502881   -3.266036
C      1.972817    0.842556   -0.139297
C      1.758149    1.014298    1.229048
H      1.856309    2.257244    3.913596
H      0.723859    1.509888    5.101412
H      1.815810    0.449772    4.134102
H     -3.165442    1.881169   -0.092815
H     -4.002675    1.155674    1.329801
H     -3.205953    0.073361    0.127732
H     -1.260147    0.786896   -1.189318
H      3.006809   -0.402580   -2.656513
H      3.047185    1.399450   -2.876353
H      2.414005    0.338805   -4.187508
H      2.993271    0.776686   -0.491811
H      2.618112    1.074681    1.881955
