84

C     -2.596037    3.151691   -1.260035
C     -2.219239    2.821064    0.200465
C     -0.740105    2.988206    0.405124
C      0.194274    2.279750   -0.263760
C      1.628060    2.754679   -0.139658
C     -0.191339    1.088212   -1.162932
C      0.999295    0.079348   -1.300227
C      0.574957   -1.407594   -1.434859
C      1.474461   -2.452042   -0.683618
C      2.998592   -2.374635   -1.104566
C      3.600132   -3.805844   -1.192655
O      3.083156   -1.832732   -2.406310
C      3.847376   -1.476895   -0.146220
C      3.339719   -1.349970    1.298395
C      2.497469   -2.539927    1.740874
O      2.199281   -2.371109    3.124009
C      2.356477   -3.550065    3.908496
C      1.706679   -3.267026    5.271548
C      3.859928   -3.834285    4.147361
C      1.639904   -4.750985    3.297180
O      2.088663   -5.878646    3.450318
C      0.357801   -4.573343    2.527577
C      0.613270   -4.114037    1.080537
C      1.183976   -2.663979    0.891120
C      0.116885   -1.658131    1.434177
C     -0.867733    1.567464   -2.521459
C     -0.044765    2.718840   -3.163321
C     -0.904627    0.414893   -3.560150
C     -2.369032    1.976861   -2.226055
C     -3.228108    2.344201   -3.444409
C     -4.416146    3.146928   -2.911737
C     -4.088257    3.527154   -1.450159
C     -4.319773    5.029044   -1.211216
O     -4.921545    2.813183   -0.562092
H     -1.990108    4.019802   -1.600846
H     -2.732937    3.531769    0.882271
H     -2.544280    1.800069    0.492734
H     -0.425025    3.801028    1.055674
H      1.675486    3.860549   -0.234331
H      2.277145    2.345012   -0.938919
H      2.034315    2.459219    0.850189
H     -0.956008    0.525490   -0.586916
H      1.654730    0.367257   -2.148735
H      1.629759    0.156734   -0.403085
H     -0.487103   -1.562821   -1.163224
H      0.598597   -1.667195   -2.514934
H      1.117069   -3.381401   -1.184238
H      3.484662   -4.395408   -0.267840
H      4.682780   -3.763748   -1.439558
H      3.101838   -4.374608   -2.007449
H      4.041981   -1.767978   -2.660281
H      3.916044   -0.448059   -0.563632
H      4.897291   -1.844318   -0.119727
H      2.764920   -0.410499    1.431107
H      4.219469   -1.264336    1.974164
H      3.129970   -3.430600    1.574128
H      1.752575   -4.162579    5.928917
H      0.642169   -2.977733    5.142995
H      2.227042   -2.427971    5.781454
H      4.365731   -4.195236    3.228374
H      4.374714   -2.909273    4.485785
H      3.994834   -4.614792    4.927628
H     -0.322864   -3.882961    3.062460
H     -0.173029   -5.549896    2.489429
H     -0.350519   -4.193364    0.529337
H      1.299682   -4.852695    0.610330
H     -0.876027   -1.827486    0.970008
H     -0.045661   -1.757627    2.524849
H      0.417867   -0.606940    1.280906
H     -0.031453    3.632993   -2.539409
H     -0.434061    2.995057   -4.164236
H      1.010499    2.402171   -3.302900
H     -1.459793   -0.460601   -3.161968
H     -1.401453    0.731613   -4.500708
H      0.115890    0.107008   -3.865303
H     -2.859458    1.080448   -1.779979
H     -2.663018    2.977397   -4.158222
H     -3.586098    1.434231   -3.974221
H     -5.343454    2.534711   -2.963566
H     -4.575173    4.040873   -3.555275
H     -5.389058    5.280056   -1.377354
H     -3.702833    5.643330   -1.902468
H     -4.056395    5.299507   -0.167302
H     -4.799714    1.841892   -0.727787
