84

C     -1.170617   -4.500129   -1.813196
C      0.314144   -4.104725   -1.972387
C      0.962412   -3.939815   -0.625561
C      0.573193   -3.028750    0.289537
C      1.159708   -3.168124    1.678912
C     -0.472082   -1.951819   -0.054500
C     -0.349411   -0.675574    0.838275
C      1.079833   -0.073535    0.895393
C      1.226952    1.472960    0.661002
C      0.910684    1.931769   -0.815951
C      1.717541    1.103121   -1.846605
O     -0.460941    1.786312   -1.092404
C      1.319352    3.412617   -0.986096
C      0.619892    4.302546    0.032632
C      1.001909    3.917684    1.466848
O      0.315424    4.819556    2.328819
C      1.121825    5.387555    3.352463
C      0.171574    6.158066    4.284193
C      2.131366    6.402937    2.759159
C      1.796299    4.306057    4.177842
O      2.866347    4.522066    4.730994
C      1.122431    2.972506    4.361254
C      1.354903    2.038107    3.162011
C      0.649652    2.424458    1.810446
C     -0.887263    2.273902    1.990278
C     -1.937866   -2.560329   -0.155085
C     -3.008803   -1.431601   -0.115567
C     -2.222677   -3.491638    1.055558
C     -2.091177   -3.299046   -1.547017
C     -3.493277   -3.837813   -1.875493
C     -3.302667   -4.969475   -2.888963
C     -1.787062   -5.162400   -3.067950
C     -1.443215   -6.667964   -3.168938
O     -1.396972   -4.479687   -4.241627
H     -1.262725   -5.228530   -0.976479
H      0.434491   -3.183725   -2.578121
H      0.859162   -4.915385   -2.501294
H      1.723005   -4.668626   -0.356826
H      1.129737   -4.232527    2.003163
H      0.592947   -2.598059    2.440176
H      2.216687   -2.827371    1.673116
H     -0.210903   -1.564273   -1.062667
H     -0.709393   -0.892951    1.865195
H     -1.026916    0.084982    0.428823
H      1.530748   -0.340740    1.871153
H      1.738776   -0.599159    0.175098
H      2.330117    1.616824    0.735234
H      1.645091    1.559543   -2.855675
H      2.790640    1.050327   -1.564418
H      1.316139    0.074107   -1.935069
H     -0.628335    2.106699   -2.019146
H      2.421753    3.522892   -0.875062
H      1.057164    3.769863   -2.006564
H     -0.481230    4.254597   -0.107695
H      0.928419    5.355197   -0.148627
H      2.110313    4.018468    1.527938
H      0.724677    6.616056    5.131959
H     -0.607119    5.480152    4.694311
H     -0.346386    6.964947    3.720767
H      2.605814    6.999995    3.568354
H      1.608271    7.102715    2.076642
H      2.948917    5.906371    2.200017
H      1.541501    2.484746    5.269601
H      0.040732    3.108463    4.552470
H      1.005564    1.035579    3.485452
H      2.453098    1.954516    3.005684
H     -1.298586    3.042148    2.675924
H     -1.150375    1.300115    2.445675
H     -1.432678    2.384094    1.036348
H     -3.015069   -0.908033    0.864588
H     -2.831393   -0.692050   -0.926063
H     -4.034389   -1.836525   -0.236667
H     -1.581176   -4.392992    1.056630
H     -3.277567   -3.828495    1.081736
H     -2.038126   -2.950150    2.007170
H     -1.871333   -2.542286   -2.336396
H     -3.997383   -4.245877   -0.975145
H     -4.132591   -3.037067   -2.309529
H     -3.794618   -4.715096   -3.856100
H     -3.789956   -5.891488   -2.497378
H     -1.933891   -7.109757   -4.061899
H     -0.347475   -6.817792   -3.260162
H     -1.790377   -7.217230   -2.267371
H     -0.477422   -4.761750   -4.477935
