18

C      1.814432    2.236564   -0.902531
C      0.390052    2.776689   -0.964028
C     -0.410867    2.294893    0.208970
O     -0.481605    3.012284    1.244092
C     -1.069757    0.974281    0.162001
C     -1.785008    0.494330    1.184578
C     -2.426008   -0.831742    1.097790
C     -3.150789   -1.362487    2.086026
Br    -3.473318   -0.494320    3.764546
H      2.391563    2.610369   -1.774362
H      1.807847    1.125846   -0.930769
H      2.315965    2.577007    0.028658
H      0.419594    3.887965   -0.966427
H     -0.089963    2.448038   -1.911143
H     -0.960828    0.381049   -0.738944
H     -1.893488    1.086392    2.084058
H     -2.307218   -1.410863    0.189110
H     -3.589217   -2.342107    1.945360
