18

C      2.521914    0.870442   -1.329267
C      1.387691    1.370954   -0.440208
C      1.527792    0.840924    0.962153
O      2.086951    1.568775    1.825484
C      1.069974   -0.505229    1.372986
C      0.525513   -1.396825    0.536501
C      0.097983   -2.721510    1.026457
C     -0.440493   -3.656480    0.239188
Br    -0.741533   -3.432269   -1.640935
H      2.400388    1.282729   -2.353017
H      3.501756    1.204448   -0.925858
H      2.512948   -0.238104   -1.391038
H      1.416899    2.482207   -0.418399
H      0.406004    1.084677   -0.872256
H      1.196597   -0.772271    2.416318
H      0.399927   -1.155319   -0.508158
H      0.224242   -2.955946    2.077302
H     -0.728697   -4.604537    0.674828
