38

C      1.919650    0.136936   -1.432278
C      0.808757    0.914533   -2.141697
C      1.420328    1.964884   -3.074938
O      0.037026    0.010936   -2.908660
C     -1.220953   -0.010239   -2.311514
C     -1.301066    1.261726   -1.515105
C     -2.253220    1.234103   -0.283853
O     -2.547593    2.555533    0.097009
C     -1.781847    0.437641    0.969849
O     -0.447237    0.781767    1.304877
C      0.030844    0.123028    2.484690
C     -0.377498    0.943117    3.718726
C      1.563535    0.089530    2.415650
O     -0.441085   -1.217655    2.660830
C     -0.796663   -1.835948    1.441934
C     -1.888455   -1.046252    0.817002
O     -2.853718   -1.584820    0.295538
O      0.013197    1.568139   -1.172865
H      1.474418   -0.665943   -0.810446
H      2.599758   -0.335474   -2.173119
H      2.509804    0.812294   -0.776276
H      2.056245    1.478065   -3.845226
H      0.614035    2.528738   -3.590577
H      2.039227    2.684137   -2.496652
H     -1.293035   -0.917462   -1.684530
H     -2.011981   -0.042471   -3.090952
H     -1.668049    2.059905   -2.201817
H     -3.215595    0.794764   -0.626643
H     -1.699700    2.974932    0.399844
H     -2.464468    0.723077    1.800386
H     -0.059130    2.001650    3.604190
H     -1.477436    0.918790    3.860542
H      0.088267    0.525402    4.637308
H      1.898790   -0.515236    1.549450
H      1.970856    1.117286    2.301539
H      1.987481   -0.366283    3.336276
H     -1.150984   -2.866405    1.656240
H      0.074220   -1.905327    0.756015
