49

C      1.636424   -5.136831   -5.302528
O      0.876717   -3.933666   -5.252340
C      0.298229   -3.410604   -4.086338
C      0.413391   -4.045763   -2.835521
C     -0.181424   -3.483108   -1.702271
C     -0.884562   -2.273353   -1.792891
N     -1.503242   -1.726237   -0.616034
C     -1.635367   -0.317721   -0.361480
O     -0.975122    0.512222   -1.044230
C     -2.524560    0.165600    0.721711
C     -3.735373   -0.509039    0.963251
C     -4.638216   -0.031331    1.915740
C     -4.349666    1.128819    2.633802
C     -3.149514    1.806406    2.413809
C     -2.220476    1.325080    1.480345
N     -0.977008    2.025169    1.328380
C      0.293013    1.398599    1.583311
O      0.331572    0.186849    1.933844
C      1.564696    2.143281    1.424891
C      2.737656    1.453387    1.077886
C      3.947178    2.136164    0.922685
C      4.015168    3.528078    1.120117
C      5.293713    4.271961    0.958541
C      6.566872    3.584230    0.565150
O      5.322211    5.517531    1.154896
C      2.841766    4.214128    1.482330
C      1.632050    3.530666    1.635549
C     -1.015677   -1.651087   -3.046501
C     -0.422520   -2.214837   -4.179788
H      1.973804   -5.309437   -6.345048
H      2.530174   -5.051514   -4.649018
H      1.010451   -5.997152   -4.984329
H      0.957429   -4.974203   -2.728464
H     -0.085090   -3.985446   -0.747797
H     -1.766681   -2.386828    0.150115
H     -3.999959   -1.390296    0.392113
H     -5.570492   -0.554110    2.086608
H     -5.055223    1.501700    3.365015
H     -2.929474    2.698180    2.987462
H     -1.026235    3.048596    1.131870
H      2.717132    0.382944    0.912601
H      4.824290    1.566280    0.647336
H      7.398741    4.316762    0.489945
H      6.836383    2.824426    1.328321
H      6.441045    3.094625   -0.423186
H      2.857298    5.283133    1.654740
H      0.761756    4.091833    1.946579
H     -1.595224   -0.744254   -3.156871
H     -0.530170   -1.723625   -5.138645
