40

C      0.918326   -5.004968   -1.846782
O      1.000100   -3.756811   -1.170077
C      1.535265   -2.609581   -1.765711
O      2.010550   -2.660731   -2.933388
C      1.591709   -1.341530   -1.003253
C      0.525432   -0.873718   -0.298640
C     -0.866687   -1.459754   -0.455865
C     -1.888005   -0.381008   -0.857745
C     -1.604095    1.016276   -0.269305
C     -0.718760    0.967217    0.993878
O     -0.540090    2.293160    1.456822
C     -1.062305    2.338166    2.745937
C     -1.861926    1.087972    2.923274
O     -1.398710    0.192455    1.966034
C      0.686503    0.317673    0.656898
C      1.346391   -0.185876    1.967965
C      1.617020    1.368753   -0.021813
C      2.980759    0.791656   -0.418449
C      2.864047   -0.571809   -1.034567
O      3.890376   -1.075233   -1.566568
H      1.934865   -5.351704   -2.129336
H      0.456589   -5.755199   -1.172726
H      0.289445   -4.903018   -2.756490
H     -1.165269   -1.917811    0.511105
H     -0.927907   -2.261060   -1.217921
H     -1.913728   -0.298776   -1.966703
H     -2.897231   -0.717504   -0.534045
H     -2.571157    1.507876   -0.023808
H     -1.121813    1.648202   -1.044411
H     -0.227068    2.376117    3.478384
H     -1.700303    3.239483    2.866248
H     -1.720157    0.664289    3.940240
H     -2.942418    1.284823    2.749498
H      2.324771   -0.673167    1.779143
H      1.507349    0.657270    2.672618
H      0.713078   -0.949448    2.467162
H      1.795823    2.232409    0.655017
H      1.134981    1.763625   -0.941188
H      3.640720    0.731219    0.472977
H      3.467201    1.479976   -1.143076
