26

C      1.547660   -0.143280   -2.201428
C      1.766223   -1.599125   -2.572179
C      0.566800   -2.227386   -2.522803
C     -0.428818   -1.252458   -1.906552
C      0.123858   -0.113963   -2.673109
O     -0.335763    0.426749   -3.667855
C      0.110426   -0.976487   -0.448209
C     -0.470659   -0.745122    1.012290
C      0.654222   -1.328620    1.902087
C      1.890581   -0.799898    1.635179
C      1.886324    0.425459    0.694836
C      0.818993    1.317286    1.376258
C     -0.425653    0.744989    1.415081
C      1.198647    0.092192   -0.699270
H      2.218654    0.599063   -2.684125
H      2.691332   -2.042740   -2.923851
H      0.388919   -3.267896   -2.772711
H     -1.506753   -1.484396   -2.032947
H      0.622872   -1.956932   -0.272826
H     -1.453922   -1.230362    1.183669
H      0.505974   -2.161375    2.581437
H      2.789954   -1.157322    2.125088
H      2.872534    0.925451    0.599109
H      1.003226    2.342920    1.678126
H     -1.293143    1.273825    1.795136
H      0.729611    1.105599   -0.872593
