26

C      1.325477    1.746180    1.236511
C      2.095782    1.798849   -0.070609
C      1.220358    2.101284   -1.059514
C     -0.178694    2.037563   -0.459437
C      0.262584    2.704065    0.785670
O      0.090988    3.864408    1.128173
C     -0.363355    0.538723    0.002198
C     -1.510445   -0.559482    0.051062
C     -0.706002   -1.872271   -0.113330
C      0.316555   -2.002343    0.790456
C      0.315346   -0.960203    1.930506
C     -1.146831   -1.069606    2.429457
C     -2.074196   -0.732927    1.478233
C      0.362786    0.525518    1.366702
H      1.876821    2.051608    2.151407
H      3.171107    1.721032   -0.188547
H      1.474273    2.247015   -2.104050
H     -0.997897    2.514141   -1.036933
H      0.306701    0.049820   -0.750553
H     -2.288278   -0.427707   -0.729485
H     -0.852533   -2.562425   -0.937460
H      1.013973   -2.832538    0.758461
H      1.061711   -1.160539    2.727102
H     -1.411127   -1.267671    3.462854
H     -3.135963   -0.690094    1.696097
H     -0.280131    1.001388    2.164972
