44

C     -1.866088   -0.482506    0.705665
C     -2.217418    0.997797    0.516554
C     -1.302047    1.935551    1.337274
C     -1.920033    3.355404    1.348931
O     -1.186038    1.475686    2.698126
C     -2.231864    1.256142    3.609446
C     -1.904801    0.814914    4.994842
O     -3.435561    1.448075    3.291030
C      0.158914    2.021968    0.776026
C      0.431192    2.915280   -0.441604
C      1.844791    2.560221   -0.760151
O      2.536739    3.199980   -1.537222
C      2.337761    1.379785    0.023567
C      3.293231    0.483284   -0.781090
C      1.008254    0.736723    0.522691
C      0.465180   -0.242360   -0.568310
C     -0.852129   -0.912344   -0.313396
C     -1.347859   -1.887447   -1.080372
C     -0.694846   -2.499840   -2.282679
C     -2.695453   -2.136730   -0.631096
O     -3.497095   -2.974051   -1.121797
O     -3.000411   -1.298143    0.419022
H     -1.502155   -0.725363    1.725347
H     -2.186913    1.277653   -0.560415
H     -3.273028    1.142011    0.830357
H     -1.277426    4.053033    1.927700
H     -2.037496    3.746798    0.316148
H     -2.927647    3.361198    1.810202
H     -1.925148    1.690480    5.676352
H     -0.893320    0.357855    5.018822
H     -2.645692    0.063052    5.339502
H      0.693495    2.542756    1.610924
H      0.354286    3.993576   -0.183300
H     -0.233268    2.664399   -1.295207
H      2.902862    1.762224    0.903366
H      3.509329   -0.446341   -0.213471
H      2.872615    0.225503   -1.776251
H      4.253475    1.016843   -0.945565
H      1.175337    0.183526    1.473121
H      1.201515   -1.066324   -0.670976
H      0.397542    0.274008   -1.550035
H     -0.598142   -1.737658   -3.083847
H     -1.302574   -3.346617   -2.664291
H      0.311377   -2.884122   -2.015221
