72

C     -2.732852   -0.223915   -0.220735
C     -2.107494   -1.177840   -1.315186
C     -2.723366   -2.589139   -1.236791
C     -0.553839   -1.298060   -1.445222
C      0.205200   -0.100679   -2.048938
C     -0.215298    0.217653   -3.499665
C      0.697419    1.215615   -4.286798
O      0.050929    1.514757   -5.506740
C      2.093316    0.602589   -4.615303
F      2.740135    1.389721   -5.552726
F      2.901167    0.516489   -3.496534
F      1.951490   -0.665988   -5.150947
C      0.849319    2.564919   -3.533888
F      1.600706    2.425725   -2.382992
F      1.475329    3.494632   -4.346122
F     -0.394624    3.066754   -3.191995
C     -2.464208    1.281915   -0.488833
C     -1.592329    1.807085    0.667615
C     -1.199516    0.561431    1.450927
C     -0.777428    0.708841    2.894168
C     -0.175830    1.960141    3.390914
C      0.980505    2.469836    2.946715
C      1.910712    1.776073    2.020307
C      2.430774    2.424322    0.946600
C      2.047272    3.852061    0.624345
C      3.485909    1.772378    0.124874
O      4.028479    2.394025   -0.828643
C      3.902088    0.359685    0.396910
C      3.760372    0.044065    1.887207
O      4.058168   -1.311924    2.098401
C      2.327277    0.350417    2.348609
C     -0.839043   -0.360676    3.708747
C     -1.474239   -1.684247    3.312010
C     -1.945668   -1.774090    1.834490
C     -2.384194   -0.391987    1.293015
C     -3.634714    0.074765    2.116466
H     -3.832827   -0.359106   -0.337486
H     -2.480440   -0.790771   -2.286952
H     -2.236280   -3.211599   -0.460874
H     -3.814861   -2.543546   -1.034320
H     -2.587544   -3.110877   -2.210287
H     -0.327937   -2.170729   -2.099623
H     -0.082218   -1.549829   -0.482907
H      1.278654   -0.372224   -2.032937
H      0.100170    0.783615   -1.399385
H     -1.239312    0.644161   -3.483317
H     -0.289988   -0.735087   -4.070347
H     -0.083370    0.666511   -6.008379
H     -3.425763    1.843254   -0.497196
H     -1.996367    1.473743   -1.471209
H     -2.177255    2.503279    1.308164
H     -0.697215    2.340917    0.283259
H     -0.324162    0.138531    0.924770
H     -0.722369    2.508843    4.147888
H      1.274015    3.445525    3.315012
H      2.207265    4.074902   -0.448609
H      2.664095    4.548865    1.228266
H      0.973713    4.043077    0.830161
H      3.263821   -0.325044   -0.204229
H      4.960152    0.214406    0.088856
H      4.478967    0.679300    2.458261
H      4.177437   -1.429275    3.077403
H      1.638299   -0.366395    1.858983
H      2.263932    0.184884    3.446615
H     -0.483520   -0.269387    4.727978
H     -0.753095   -2.501252    3.520175
H     -2.346848   -1.852552    3.976057
H     -2.784447   -2.499704    1.758652
H     -1.103989   -2.187867    1.256366
H     -3.424624    0.191604    3.197885
H     -4.453374   -0.670447    2.012130
H     -4.029301    1.049768    1.762967
