39

O      1.814868    0.603940    0.292706
C      1.591857   -0.144702   -0.647538
C      2.206851    0.128070   -1.997675
C      1.205877   -0.150273   -3.134407
C      0.490775   -1.496880   -2.942839
N     -0.148748   -1.512197   -1.620951
C     -1.540051   -1.144686   -1.547359
O     -2.369214   -1.681188   -2.332564
O     -1.966743   -0.178325   -0.634385
C     -3.333541    0.172927   -0.459864
C     -3.446495    1.127850    0.690960
C     -3.512196    2.512750    0.465868
C     -3.571597    3.398623    1.546514
C     -3.552801    2.909319    2.855750
C     -3.470208    1.533329    3.086811
C     -3.411729    0.644273    2.009199
C      0.782570   -1.409680   -0.477086
C      0.125037   -1.535128    0.919801
C     -0.720588   -2.774726    1.046019
C     -1.422951   -3.014186    2.155612
H      2.547147    1.184582   -2.059371
H      3.094678   -0.528681   -2.121054
H      0.446817    0.662234   -3.159583
H      1.741718   -0.149255   -4.107824
H      1.228294   -2.326270   -3.012648
H     -0.253053   -1.643860   -3.755937
H     -3.724426    0.632066   -1.394103
H     -3.932011   -0.739835   -0.245705
H     -3.515565    2.906119   -0.543143
H     -3.627371    4.464856    1.368976
H     -3.596601    3.596459    3.690830
H     -3.447093    1.155799    4.100908
H     -3.335917   -0.419101    2.200740
H      1.503445   -2.254904   -0.552422
H     -0.474469   -0.634689    1.164569
H      0.931105   -1.592785    1.683935
H     -0.772681   -3.487664    0.227729
H     -2.031634   -3.909302    2.230867
H     -1.398791   -2.321384    2.991575
