43

C     -2.736903   -5.396928    1.767389
O     -2.610186   -4.249965    0.936092
C     -1.386669   -3.605691    0.720413
O     -0.343741   -4.017375    1.302992
C     -1.336376   -2.364269   -0.146440
C     -2.350761   -2.459321   -1.300363
C     -1.579039   -1.085072    0.715402
C     -0.330254   -0.272996    0.551706
C     -0.042579    0.950463    1.164293
O     -0.983437    1.552917    2.001242
C     -1.948131    2.464790    1.493431
C      1.218200    1.546093    0.938279
C      2.143280    0.933097    0.055094
C      1.822971   -0.298436   -0.556345
O      2.731281   -0.926006   -1.411364
C      2.609407   -0.823218   -2.824663
C      0.581267   -0.880037   -0.274989
C      0.042265   -2.149546   -0.710432
O      0.653040   -2.977698   -1.438350
C      3.498047    1.558589   -0.162037
C      3.523254    3.006353    0.336025
O      2.964399    3.085876    1.631808
C      1.565071    2.878752    1.564515
H     -3.794150   -5.733035    1.764945
H     -2.439100   -5.145778    2.807597
H     -2.096315   -6.219573    1.382137
H     -2.161221   -3.368702   -1.910809
H     -3.388267   -2.507994   -0.905051
H     -2.274192   -1.569100   -1.962193
H     -2.453542   -0.498832    0.358819
H     -1.725237   -1.322548    1.792536
H     -1.442582    3.352036    1.058798
H     -2.566802    1.973304    0.714148
H     -2.608009    2.795550    2.320922
H      3.418312   -1.411123   -3.304020
H      1.628240   -1.218641   -3.159637
H      2.701865    0.238230   -3.136835
H      3.763278    1.544972   -1.240829
H      4.255571    0.967047    0.396267
H      2.993937    3.677060   -0.380250
H      4.577952    3.350454    0.382280
H      1.075497    3.702002    0.998213
H      1.168784    2.911147    2.601284
