32

C     -0.267892   -1.174741    4.182860
O     -0.683793   -0.870817    2.856145
C      0.149176   -0.903348    1.725820
C     -0.412900   -0.605336    0.545508
C      0.247704   -0.705172   -0.779512
C      1.120740   -1.678414   -1.092618
C      1.405098   -2.011607   -2.525022
C      2.497354   -3.104107   -2.492358
C      2.570277   -3.504131   -1.055409
O      3.259366   -4.470234   -0.632117
C      1.826093   -2.593063   -0.205336
C      2.006559   -2.460119    1.111509
C      1.625725   -1.205393    1.834081
C      1.779912   -0.724959   -3.276912
C      0.793033    0.441623   -2.978350
C     -0.298539    0.117631   -1.924575
H      0.488081   -0.437067    4.525190
H      0.146874   -2.204020    4.227958
H     -1.145620   -1.117341    4.858578
H     -1.447422   -0.282294    0.547922
H      0.482826   -2.442093   -2.977304
H      3.485356   -2.712163   -2.816476
H      2.211025   -3.972863   -3.123238
H      2.610312   -3.187538    1.641090
H      1.955818   -1.293229    2.887194
H      2.197526   -0.354446    1.403488
H      1.799895   -0.932881   -4.368668
H      2.804343   -0.409560   -2.978171
H      0.293809    0.753907   -3.921121
H      1.377534    1.316847   -2.618650
H     -0.724623    1.070614   -1.542261
H     -1.121021   -0.451400   -2.410083
