32

C     -3.451773   -0.792535   -2.480974
O     -2.928738   -1.383995   -1.294665
C     -1.933492   -0.820624   -0.475669
C     -1.400574    0.393319   -0.735689
C     -0.309606    1.058898    0.032291
C      0.679798    0.376180    0.659169
C      1.908985    1.022855    1.242234
C      3.030652   -0.029455    1.093397
C      2.289590   -1.306721    0.885995
O      2.829329   -2.444964    0.901285
C      0.876016   -1.068549    0.665791
C     -0.076759   -2.001136    0.650762
C     -1.520789   -1.622602    0.721720
C      2.219350    2.362702    0.571381
C      0.957457    3.226137    0.608976
C     -0.184320    2.559514   -0.177189
H     -4.199241   -1.479264   -2.928189
H     -2.637090   -0.627087   -3.217374
H     -3.954353    0.167904   -2.240031
H     -1.798832    0.965986   -1.561868
H      1.721944    1.194614    2.326632
H      3.655520   -0.079378    2.010811
H      3.669747    0.169088    0.205956
H      0.192390   -3.049249    0.703305
H     -1.713215   -1.038510    1.648113
H     -2.132297   -2.548559    0.780287
H      2.536840    2.210394   -0.484219
H      3.040123    2.874195    1.118927
H      0.641320    3.382405    1.664180
H      1.176291    4.223173    0.169387
H     -0.009917    2.743480   -1.260028
H     -1.143912    3.049171    0.095685
