52

C      0.410331    2.658889   -0.010108
C     -0.012545    1.232643    0.244080
C      0.106412    0.663510    1.463629
C      0.712263    1.314786    2.638532
C      1.970810    1.918109    2.636275
S      2.288192    2.455338    4.196631
C      0.830283    1.886868    4.806069
C      0.398646    2.013259    6.226698
N      0.093568    1.283726    3.848861
C     -0.670593    0.467344   -0.897488
C     -2.193450    0.698020   -0.900075
C     -2.884278    0.106166    0.309569
O     -3.042509   -1.103107    0.359612
C     -3.428026    0.946546    1.436513
O     -3.343520    2.320648    1.162138
O     -0.407115   -0.921980   -0.815954
Si     1.104262   -1.369985   -1.556655
C      2.390180   -0.000814   -1.536863
C      1.813905   -2.758093   -0.526969
C      0.778788   -1.971577   -3.333707
C      2.088127   -2.491280   -3.953907
C      0.234597   -0.809672   -4.184899
C     -0.260248   -3.106839   -3.302969
H      1.515143    2.730782   -0.053176
H      0.012482    3.025923   -0.978458
H      0.018633    3.326766    0.785363
H     -0.324066   -0.316675    1.634740
H      2.652060    1.983088    1.799897
H      0.327198    3.087148    6.499032
H     -0.592724    1.542296    6.369181
H      1.141004    1.518107    6.887383
H     -0.317134    0.887535   -1.866046
H     -2.623517    0.227378   -1.811336
H     -2.397621    1.785635   -0.993190
H     -2.889492    0.699915    2.381371
H     -4.497453    0.689199    1.582842
H     -2.454643    2.625089    1.482992
H      2.046456    0.874529   -2.124399
H      2.586705    0.306887   -0.489062
H      3.334782   -0.379811   -1.974106
H      2.786958   -3.078093   -0.946574
H      1.966400   -2.394035    0.508847
H      1.112723   -3.615960   -0.511661
H      2.504724   -3.328467   -3.355277
H      1.909504   -2.865918   -4.986583
H      2.849879   -1.682868   -4.008683
H      0.085045   -1.131170   -5.236611
H      0.938160    0.048303   -4.189112
H     -0.743106   -0.468434   -3.797974
H      0.119088   -3.978734   -2.728431
H     -1.208345   -2.761853   -2.836970
H     -0.490063   -3.450977   -4.333823
