52

C      6.138165   -1.327102    1.032347
O      5.252019   -0.469747    0.319901
C      4.115558    0.134544    0.878932
C      3.741816   -0.055302    2.222443
C      2.597249    0.564954    2.732701
C      1.802068    1.385130    1.911199
C      0.569108    2.036894    2.424494
O      0.105065    3.042151    1.820223
C     -0.196369    1.501686    3.609277
C     -0.750494    0.091027    3.348079
N     -1.357036   -0.002985    2.003060
C     -2.739034    0.505222    1.979952
C     -3.135779    0.745988    0.522916
N     -2.615745   -0.322452   -0.340459
C     -2.659080   -0.158873   -1.768476
C     -1.895949    0.853361   -2.372504
C     -1.908831    1.016118   -3.759291
C     -2.680508    0.168608   -4.555498
C     -3.445840   -0.842019   -3.967190
C     -3.448112   -1.011752   -2.566869
O     -4.225640   -1.999148   -1.940482
C     -5.041551   -2.941675   -2.629559
C     -2.189197   -1.601572    0.242685
C     -1.297406   -1.387757    1.485713
C      2.186441    1.576260    0.571479
C      3.329810    0.954052    0.062937
H      6.946133   -1.661012    0.349302
H      5.590975   -2.220862    1.400159
H      6.595284   -0.781508    1.885030
H      4.329408   -0.679702    2.881796
H      2.346542    0.404551    3.772597
H      0.454849    1.490112    4.508225
H     -1.037916    2.187152    3.846127
H      0.097254   -0.624556    3.442401
H     -1.486598   -0.177684    4.139422
H     -2.825409    1.466445    2.530231
H     -3.435967   -0.224622    2.451747
H     -2.709124    1.721900    0.203769
H     -4.241832    0.799548    0.431041
H     -1.277413    1.505165   -1.767754
H     -1.315232    1.796403   -4.218234
H     -2.687447    0.295445   -5.630221
H     -4.037989   -1.479855   -4.609130
H     -5.544321   -3.595801   -1.888489
H     -4.414873   -3.573273   -3.295288
H     -5.818109   -2.413988   -3.223255
H     -1.636652   -2.208713   -0.508400
H     -3.094354   -2.174742    0.538053
H     -0.244912   -1.613540    1.209302
H     -1.602786   -2.114631    2.272322
H      1.592510    2.194842   -0.090241
H      3.604964    1.106972   -0.973669
