58

C      4.341663    3.566504    2.113715
O      4.117896    2.269478    1.571574
C      5.023450    1.581518    0.747870
C      6.270604    2.131689    0.389679
C      7.133539    1.432520   -0.457605
C      6.765142    0.182789   -0.956870
C      5.534052   -0.375157   -0.606531
C      4.661961    0.311848    0.253292
N      3.394951   -0.270886    0.603574
C      3.065115   -0.558176    2.002380
C      1.650546   -0.046248    2.355247
N      0.759589    0.132815    1.179297
C      0.747161    1.538917    0.702214
C     -0.403907    1.820385   -0.275382
C     -1.730288    1.396585    0.302264
O     -2.176832    2.021534    1.302869
C     -2.489213    0.236179   -0.222640
C     -3.236773   -0.560856    0.659749
C     -3.958565   -1.660459    0.187675
C     -3.956001   -1.982996   -1.180588
C     -4.727081   -3.149241   -1.683329
C     -4.761420   -4.353348   -0.953970
C     -5.490572   -5.448688   -1.427751
C     -6.193806   -5.354763   -2.630554
C     -6.167691   -4.166202   -3.363723
C     -5.439137   -3.068396   -2.895540
C     -3.218609   -1.177101   -2.065512
C     -2.497342   -0.077119   -1.593207
C      1.049174   -0.859334    0.118415
C      2.467040   -0.692456   -0.449410
H      4.478331    4.303901    1.294799
H      3.458301    3.863463    2.715023
H      5.234373    3.555777    2.773600
H      6.579111    3.101611    0.754922
H      8.089063    1.862059   -0.729917
H      7.435207   -0.355446   -1.614765
H      5.264766   -1.349020   -0.994712
H      3.103945   -1.659071    2.152285
H      3.812210   -0.110012    2.693479
H      1.174290   -0.777492    3.043942
H      1.743700    0.894354    2.942746
H      0.609309    2.228795    1.564671
H      1.712139    1.814300    0.226585
H     -0.440438    2.912513   -0.477119
H     -0.189086    1.333622   -1.245708
H     -3.254674   -0.338836    1.719971
H     -4.533989   -2.248090    0.892183
H     -4.210281   -4.454425   -0.027540
H     -5.508577   -6.371622   -0.862315
H     -6.757676   -6.203820   -2.995156
H     -6.715599   -4.093696   -4.294532
H     -5.448420   -2.151348   -3.471213
H     -3.190723   -1.402641   -3.124341
H     -1.969186    0.536438   -2.310179
H      0.301018   -0.805460   -0.698138
H      0.950983   -1.881429    0.547170
H      2.445591    0.074405   -1.254033
H      2.809338   -1.650884   -0.894024
