74

C      1.122731   -0.862699    0.034465
C      0.829570   -0.249217    1.381848
C     -0.380239   -0.345530    1.976097
C     -1.590692   -0.971951    1.400530
C     -2.772716   -1.093977    2.130265
S     -3.930673   -1.801155    1.135173
C     -2.880313   -1.935175   -0.170140
C     -3.243401   -2.440487   -1.521914
O     -3.466936   -1.335914   -2.362977
Si    -3.426354   -1.801744   -4.036538
C     -3.829752   -3.616265   -4.300223
C     -4.751723   -0.820343   -4.916943
C     -1.713833   -1.377555   -4.753580
C     -1.624624   -1.868225   -6.210061
C     -1.505856    0.146282   -4.709188
C     -0.618533   -2.061766   -3.915116
N     -1.664574   -1.431372    0.122600
C      1.958855    0.478332    2.103930
C      2.559781   -0.425910    3.194531
C      3.159776   -1.683125    2.618245
O      4.151381   -1.606687    1.907068
C      2.572983   -3.028554    2.956404
O      3.034874   -4.017120    2.074227
O      1.466014    1.648915    2.727709
Si     1.492896    3.038006    1.677184
C      3.199867    3.801598    1.752248
C      1.124333    2.615248   -0.114049
C      0.180840    4.251792    2.322544
C      0.458099    4.552832    3.805193
C      0.225941    5.560060    1.514908
C     -1.210483    3.607026    2.185902
H      0.524242   -0.364550   -0.755660
H      2.192244   -0.755721   -0.236556
H      0.899299   -1.949583    0.056740
H     -0.497836    0.077141    2.967034
H     -2.927292   -0.777822    3.153744
H     -2.399935   -3.079938   -1.867919
H     -4.165257   -3.056776   -1.447863
H     -3.020826   -4.252301   -3.889156
H     -4.787865   -3.858068   -3.794505
H     -3.936972   -3.816623   -5.385588
H     -5.744435   -1.125540   -4.528219
H     -4.604609    0.263598   -4.727220
H     -4.709741   -1.015869   -6.008253
H     -2.407340   -1.391765   -6.836623
H     -1.751249   -2.970007   -6.261185
H     -0.633687   -1.617010   -6.648119
H     -2.259239    0.666527   -5.334999
H     -1.587495    0.526666   -3.667776
H     -0.500346    0.413339   -5.101396
H      0.387288   -1.830685   -4.325357
H     -0.747189   -3.164731   -3.921406
H     -0.643867   -1.703076   -2.864938
H      2.794504    0.714300    1.402783
H      3.356393    0.130135    3.733834
H      1.776125   -0.683074    3.942188
H      2.822943   -3.292602    4.008523
H      1.467490   -2.975701    2.872697
H      3.940388   -4.277338    2.388534
H      3.942121    3.068959    1.372048
H      3.450574    4.060663    2.803699
H      3.233715    4.715797    1.123300
H      0.139298    2.110547   -0.190391
H      1.106412    3.544421   -0.718300
H      1.915183    1.949910   -0.515715
H     -0.302074    5.256131    4.209545
H      0.422475    3.620244    4.408897
H      1.459326    5.016637    3.936563
H      0.023577    5.371048    0.439395
H      1.218259    6.049663    1.607932
H     -0.542580    6.271180    1.886885
H     -1.458858    3.421566    1.119073
H     -1.992708    4.272380    2.606870
H     -1.254058    2.639492    2.728179
