74

C     -0.907472    1.369815   -2.305989
C     -1.368887    0.070323   -1.693941
C     -1.404622   -0.095764   -0.356424
C     -0.944888    0.911669    0.612178
C     -1.701731    1.280630    1.722917
S     -0.812027    2.402649    2.604374
C      0.502345    2.346723    1.555215
C      1.768929    3.115802    1.735634
O      2.324150    2.783754    2.985297
Si     3.910512    3.475236    3.154612
C      4.012664    5.189884    2.394028
C      5.151042    2.375610    2.284417
C      4.309767    3.566291    5.012620
C      4.110312    2.177146    5.644535
C      3.357576    4.571564    5.685362
C      5.766231    4.019368    5.220485
N      0.281607    1.498355    0.526603
C     -1.822239   -1.059632   -2.602149
C     -3.339467   -1.278744   -2.481554
C     -3.798649   -2.408690   -3.374323
O     -3.577069   -3.559854   -3.031210
C     -4.558741   -2.175956   -4.656287
O     -4.409028   -0.861763   -5.121036
O     -1.147812   -2.250780   -2.232660
Si     0.176001   -2.619594   -3.299074
C      1.226404   -1.100824   -3.642307
C     -0.517171   -3.250522   -4.921409
C      1.239127   -3.955914   -2.464541
C      1.935192   -3.345972   -1.231821
C      2.293974   -4.480450   -3.451967
C      0.332896   -5.116409   -2.015560
H     -1.126984    1.404352   -3.389990
H      0.185725    1.490912   -2.174809
H     -1.428856    2.227806   -1.831603
H     -1.836810   -1.000249    0.057802
H     -2.693264    0.918826    1.969948
H      1.518498    4.199902    1.698961
H      2.457932    2.855792    0.899982
H      3.223316    5.838256    2.823903
H      3.875186    5.123352    1.294313
H      5.007047    5.632395    2.603620
H      5.144709    1.367185    2.742361
H      4.888541    2.296378    1.209386
H      6.166168    2.812892    2.377691
H      3.062624    1.827741    5.504768
H      4.326565    2.208767    6.736600
H      4.796101    1.429328    5.188936
H      3.539457    4.610970    6.779787
H      2.294714    4.280425    5.519811
H      3.509794    5.596221    5.279632
H      6.477775    3.300012    4.761957
H      5.935041    5.017843    4.768285
H      5.996645    4.086924    6.305660
H     -1.655250   -0.771134   -3.667982
H     -3.622715   -1.528280   -1.438961
H     -3.867821   -0.337013   -2.745457
H     -4.202619   -2.891595   -5.432091
H     -5.637429   -2.382465   -4.471026
H     -3.492794   -0.796173   -5.497257
H      2.142585   -1.401523   -4.195140
H      1.500836   -0.621856   -2.683182
H      0.656392   -0.385639   -4.267764
H     -1.118144   -4.163961   -4.740896
H      0.316011   -3.489015   -5.611981
H     -1.162139   -2.477681   -5.384094
H      2.637827   -2.537671   -1.525134
H      1.183028   -2.925454   -0.529313
H      2.514286   -4.126236   -0.688778
H      1.803920   -4.986611   -4.310920
H      2.924127   -3.652547   -3.846768
H      2.957297   -5.217164   -2.950948
H      0.935150   -5.927068   -1.549627
H     -0.409763   -4.759373   -1.266192
H     -0.217324   -5.545261   -2.882274
