49

C     -0.989157   -1.073074   -2.259422
C     -0.135343   -0.375335   -3.346392
C      1.372542   -0.202829   -3.028162
C      1.638885    0.791241   -1.888945
C      2.083579   -1.543146   -2.768984
N     -1.204856   -0.199305   -1.100540
C     -1.664079   -0.709034    0.159857
O     -1.890577   -1.941180    0.300430
C     -1.907786    0.224248    1.312648
C     -1.088384   -0.147177    2.558094
C      0.396216   -0.011810    2.353695
O      0.978410   -0.710976    1.484091
C      1.204320    0.814231    3.260445
C      1.952909    0.314377    4.307238
C      2.554181    1.402492    4.910325
C      2.154767    2.519303    4.203746
N      1.336350    2.156041    3.199159
S      0.656893    3.245234    2.030534
C     -0.933451    3.814086    2.590793
O      0.522612    2.555728    0.703432
O      1.570038    4.427306    1.861773
C     -2.319410   -1.457948   -2.843754
O     -2.455985   -2.587458   -3.391144
O     -3.383242   -0.549711   -2.810933
C     -4.659673   -0.842242   -3.363577
H     -0.477911   -2.001423   -1.928323
H     -0.573493    0.617464   -3.582540
H     -0.203820   -0.971366   -4.280910
H      1.835856    0.235511   -3.944888
H      2.723919    1.021821   -1.836271
H      1.095820    1.744219   -2.068843
H      1.330271    0.367798   -0.911157
H      1.799088   -1.969087   -1.779604
H      3.182831   -1.387768   -2.773796
H      1.836327   -2.278452   -3.567121
H     -1.127329    0.835374   -1.219753
H     -2.986880    0.178675    1.571521
H     -1.691360    1.270376    1.017698
H     -1.317005   -1.190919    2.862844
H     -1.408494    0.510615    3.395368
H      2.047140   -0.721750    4.602579
H      3.214378    1.382472    5.766782
H      2.456811    3.537724    4.410792
H     -1.436959    4.374364    1.775886
H     -1.561194    2.950342    2.889799
H     -0.794532    4.482609    3.461947
H     -4.570804   -1.013902   -4.454722
H     -5.336836    0.013373   -3.188500
H     -5.088655   -1.741577   -2.876476
