94

C     -0.742695    1.659259    0.271727
C     -1.389435    0.320229    0.824932
O     -1.269405    0.266465    2.214032
C     -1.594710   -1.066768    2.559527
C     -0.601285   -1.620721    3.560425
C      0.173017   -0.765118    4.368649
C      1.078682   -1.293730    5.293503
C      1.208570   -2.676985    5.436577
C      0.429572   -3.534973    4.657707
C     -0.476149   -3.012107    3.730469
O     -1.632311   -1.884978    1.401918
C     -1.020235   -1.134821    0.389686
C      0.508529   -1.469126    0.462959
C      1.351259   -1.335816   -0.841824
O      2.401368   -0.409985   -0.626492
Si     3.914946   -1.161712   -0.191552
C      3.736556   -2.466115    1.165551
C      3.579500   -1.861739    2.558892
C      5.073358    0.198932    0.402889
C      6.470847   -0.330295    0.710137
C      4.660824   -2.002630   -1.701334
C      5.099699   -0.996896   -2.759008
C      0.550822   -0.880004   -2.057531
C      1.319088   -0.722885   -3.354223
C     -0.808301   -0.744799   -2.022349
C     -1.420999    0.418174   -2.797705
O     -2.328319   -0.001717   -3.766561
C     -3.145928    1.138052   -3.978046
C     -4.619657    0.716974   -3.953635
C     -2.803737    1.757042   -5.337036
O     -2.921467    2.103511   -2.961632
C     -2.196989    1.419211   -1.979694
C     -1.449876    2.387356   -0.982956
C     -2.581508    3.305680   -0.409595
C     -0.479788    3.348749   -1.745530
C      0.955221    2.847975   -1.868152
C      1.590725    2.655853   -0.506532
C      0.767895    1.785327    0.399193
O      1.308754    1.382222    1.418180
C     -1.578011   -1.594902   -0.996560
C     -3.142333   -1.558512   -1.083821
C     -1.263790   -3.104943   -1.280694
H     -0.989858    2.345476    1.114634
H     -2.470945    0.473075    0.671211
H     -2.601471   -1.074174    3.030790
H      0.085700    0.310585    4.283998
H      1.680057   -0.629636    5.900781
H      1.913558   -3.082508    6.150244
H      0.524820   -4.606697    4.775123
H     -1.077126   -3.694276    3.142412
H      0.599327   -2.529750    0.787726
H      0.974403   -0.923091    1.293269
H      1.744044   -2.342246   -1.110962
H      2.874794   -3.124058    0.941061
H      4.648011   -3.098954    1.157113
H      2.752921   -1.127219    2.594115
H      4.514045   -1.358009    2.873649
H      3.366740   -2.670994    3.286921
H      5.137833    0.985453   -0.377870
H      4.642051    0.655988    1.317386
H      6.426756   -1.139987    1.468095
H      7.099607    0.493089    1.110855
H      6.950158   -0.725293   -0.210077
H      5.538604   -2.601279   -1.379630
H      3.911616   -2.694210   -2.137222
H      5.466327   -1.539153   -3.654736
H      4.255347   -0.348090   -3.058155
H      5.922815   -0.360539   -2.374935
H      1.928808   -1.632931   -3.527524
H      0.650859   -0.624591   -4.236854
H      1.998251    0.146085   -3.307795
H     -0.638604    0.979710   -3.341792
H     -4.801176   -0.095509   -4.689725
H     -5.275301    1.579429   -4.198393
H     -4.898899    0.346437   -2.945846
H     -1.730743    2.038217   -5.364900
H     -3.408809    2.672950   -5.508854
H     -3.000866    1.032886   -6.154969
H     -2.962052    0.916419   -1.390998
H     -3.340397    2.707070    0.138716
H     -2.173886    4.060760    0.296597
H     -3.101316    3.870716   -1.215379
H     -0.427617    4.335253   -1.226815
H     -0.864640    3.568282   -2.765595
H      1.015262    1.908755   -2.426881
H      1.549321    3.599458   -2.433559
H      2.598619    2.209765   -0.642437
H      1.728471    3.645688   -0.019812
H     -3.653060   -0.794463   -0.482027
H     -3.591888   -2.487568   -0.669608
H     -3.481052   -1.500563   -2.136547
H     -0.195681   -3.365037   -1.319851
H     -1.710914   -3.757929   -0.500636
H     -1.684890   -3.401198   -2.265638
