94

C     -1.546559   -2.595482   -0.984670
C     -2.258231   -1.165928   -1.033391
O     -2.616020   -0.897376   -2.357468
C     -2.762222    0.498230   -2.455333
C     -2.039563    1.013069   -3.683800
C     -2.022842    0.245094   -4.863862
C     -1.375719    0.721143   -6.008222
C     -0.751469    1.969621   -5.991137
C     -0.796013    2.758644   -4.841417
C     -1.444351    2.290851   -3.695752
O     -2.295894    1.138801   -1.288254
C     -1.636254    0.171514   -0.520133
C     -0.090577    0.292328   -0.842568
C      0.857624    0.645839    0.338333
O      2.148264    0.172917    0.002969
Si     3.424176    1.358512    0.101509
C      3.028984    2.898406    1.133594
C      4.272334    3.746814    1.371156
C      3.937828    1.847161   -1.636789
C      2.956855    2.826392   -2.264227
C      4.882472    0.492322    0.901358
C      5.060782   -0.920131    0.359773
C      0.394576   -0.020392    1.629916
C      1.437352   -0.403340    2.662060
C     -0.927849   -0.319420    1.799635
C     -1.284772   -1.641495    2.477202
O     -2.116183   -1.498092    3.579909
C     -2.633814   -2.809480    3.764582
C     -4.151564   -2.725249    3.959069
C     -1.983516   -3.439066    4.999770
O     -2.346255   -3.616916    2.627423
C     -1.980184   -2.697675    1.636448
C     -1.216078   -3.331571    0.403475
C     -1.708393   -4.809152    0.285271
C      0.316640   -3.360061    0.643744
C      1.095582   -4.051118   -0.471677
C      0.902142   -3.361261   -1.820116
C     -0.482264   -2.803922   -2.072224
O     -0.738194   -2.475435   -3.223597
C     -1.926282    0.519919    0.995231
C     -1.646414    2.054143    1.270821
C     -3.414576    0.364554    1.452635
H     -2.382696   -3.201597   -1.402814
H     -3.238165   -1.299624   -0.547246
H     -3.841916    0.729970   -2.569138
H     -2.507663   -0.724244   -4.901423
H     -1.361496    0.121683   -6.908908
H     -0.242208    2.332067   -6.873307
H     -0.316155    3.727561   -4.833737
H     -1.463569    2.919301   -2.818546
H      0.286241   -0.631238   -1.291351
H      0.072236    1.054372   -1.631172
H      0.828624    1.736517    0.469528
H      2.269065    3.513990    0.612362
H      2.611228    2.591252    2.113582
H      5.019217    3.178723    1.964618
H      3.990471    4.662644    1.931858
H      4.723107    4.051385    0.406159
H      3.997562    0.929150   -2.257657
H      4.946721    2.309792   -1.594240
H      2.994632    3.799418   -1.730152
H      1.927673    2.422982   -2.231522
H      3.236885    3.001712   -3.323288
H      5.801602    1.085365    0.723102
H      4.704492    0.440246    1.994461
H      4.163721   -1.535315    0.587377
H      5.221473   -0.894077   -0.738817
H      5.946195   -1.390221    0.835957
H      1.902557   -1.377293    2.409910
H      2.236514    0.359521    2.705994
H      0.992342   -0.447656    3.678897
H     -0.357911   -2.112264    2.862416
H     -4.392731   -2.097273    4.842415
H     -4.630152   -2.273263    3.067272
H     -4.578395   -3.739227    4.107211
H     -2.380319   -4.466125    5.161208
H     -2.187483   -2.824307    5.905134
H     -0.881212   -3.500368    4.858209
H     -2.937846   -2.370258    1.237446
H     -1.399510   -5.272640   -0.675940
H     -2.816423   -4.851403    0.310618
H     -1.319854   -5.439010    1.114995
H      0.703074   -2.330778    0.686225
H      0.550841   -3.871305    1.603839
H      2.179535   -4.029326   -0.218625
H      0.819168   -5.124930   -0.547301
H      1.129465   -4.109107   -2.618549
H      1.644272   -2.537507   -1.922617
H     -1.046977    2.209271    2.198894
H     -1.144300    2.569989    0.424352
H     -2.572588    2.659867    1.412113
H     -4.068895    1.046397    0.859349
H     -3.890678   -0.614004    1.365829
H     -3.503929    0.655328    2.522770
