41

C     -0.864827   -0.990061   -0.791853
C     -0.021781   -2.250752   -0.478175
C     -0.085175   -2.774268    0.975131
C     -0.325229   -1.783009    2.157104
C     -1.821379   -1.365853    2.264141
O     -0.016230   -2.484303    3.344337
C      0.665709   -0.570147    2.113398
C      0.415129    0.483553    3.205059
C      1.011347    1.716419    2.649080
O      1.120051    2.746354    3.296745
C      1.430865    1.605776    1.226901
C      2.954443    1.737099    1.108612
C      0.925905    0.203623    0.784077
C     -0.284054    0.335818   -0.178935
O      0.104328    1.121640   -1.294334
C     -0.329868    0.593776   -2.483179
O     -0.166937    1.181945   -3.584922
C     -1.044522   -0.688501   -2.319390
C     -0.528589   -1.737080   -3.318405
H     -1.885396   -1.170579   -0.395892
H     -0.385193   -3.092291   -1.102947
H      1.033415   -2.097968   -0.785308
H      0.874195   -3.305999    1.163517
H     -0.864313   -3.567988    1.021412
H     -2.493390   -2.171355    1.899720
H     -2.063607   -0.436783    1.726484
H     -2.093236   -1.183384    3.326232
H     -0.617447   -3.273398    3.412543
H      1.662939   -1.007748    2.360768
H      0.916234    0.198855    4.155767
H     -0.659562    0.677209    3.391510
H      0.957549    2.430427    0.649788
H      3.465979    0.948415    1.702022
H      3.258961    1.641686    0.044717
H      3.282986    2.733247    1.474768
H      1.743101   -0.301841    0.225406
H     -1.096489    0.894464    0.330315
H     -2.121334   -0.505582   -2.532156
H     -1.103410   -2.680996   -3.215626
H      0.554939   -1.934109   -3.173631
H     -0.679016   -1.374520   -4.357781
