26

C      0.444622   -0.999173    2.146711
C      0.009129   -1.227962    3.558540
C     -0.767598   -2.321647    3.092459
C     -0.785779   -1.669821    1.749388
C     -0.752548   -1.910978    0.181083
C      0.687540   -1.974366   -0.353286
C      1.462891   -0.912996   -0.009787
C      0.808464    0.038872    1.010959
C     -0.488779    0.622929    0.293959
C     -0.353099    1.146711   -1.123906
O      0.974288    1.324169   -1.539333
C     -1.007550   -0.083159   -1.764968
O     -1.219723   -0.499009   -2.891958
C     -1.307639   -0.523618   -0.334626
H      1.346829   -1.679570    2.183902
H      0.358325   -0.898252    4.531072
H     -1.336866   -3.112700    3.568474
H     -1.708328   -1.043408    1.918272
H     -1.379762   -2.766455   -0.145273
H      1.036839   -2.760539   -1.013924
H      2.488597   -0.806460   -0.347090
H      1.508483    0.827375    1.357424
H     -1.098354    1.282027    0.950199
H     -0.962598    2.064970   -1.290131
H      0.928004    1.665610   -2.469822
H     -2.400060   -0.418356   -0.140529
