60

C      1.136990   -0.062680   -0.799207
C      2.423690   -0.053131   -1.537811
O      2.571337   -0.414132   -2.694394
C      3.509769    0.542351   -0.692600
C      2.823254    0.795186    0.685947
C      2.468876    2.262666    0.944214
C      2.061189    3.145925   -0.079984
C      1.718688    4.468646    0.215826
C      1.781457    4.933307    1.529953
C      2.195093    4.078214    2.551795
C      2.541068    2.755865    2.262164
C      1.589482   -0.179197    0.673002
C      2.134220   -1.582692    1.088496
C      0.415011    0.103405    1.592309
O      0.698169    0.539927    2.896197
C     -0.028761    0.209201    4.045889
C      0.192038    0.994317    5.293267
O     -0.785783   -0.799144    4.069018
C     -0.856228   -0.167417    1.195926
C     -1.259312   -0.392441   -0.265311
C     -2.667182   -1.066958   -0.497127
C     -3.787352   -0.052820   -0.139720
C     -2.879919   -2.317661    0.390408
C     -2.836612   -1.473172   -1.998436
C     -2.035751   -0.577740   -2.958632
C     -0.509913   -0.591182   -2.693699
C     -0.107647   -0.908555   -1.211040
C      0.168723   -2.431036   -1.096639
H      0.782377    0.981932   -0.933143
H      4.328047   -0.201504   -0.582393
H      3.926232    1.463379   -1.151525
H      3.556449    0.505853    1.472434
H      2.016351    2.830850   -1.112617
H      1.406323    5.135658   -0.577321
H      1.514091    5.957477    1.755659
H      2.248113    4.439740    3.570581
H      2.860741    2.112250    3.072424
H      1.338525   -2.277465    1.414379
H      2.783414   -1.500754    1.986367
H      2.738464   -2.053798    0.286038
H      0.449736    2.044868    5.035649
H     -0.729453    0.992910    5.914654
H      1.028583    0.544531    5.870429
H     -1.656346    0.034048    1.892140
H     -1.412030    0.661276   -0.598211
H     -4.792759   -0.501447   -0.293093
H     -3.723450    0.263321    0.921836
H     -3.722735    0.854489   -0.777597
H     -2.188427   -3.139073    0.128699
H     -3.908701   -2.714917    0.251344
H     -2.755731   -2.078740    1.467164
H     -3.908019   -1.433603   -2.294967
H     -2.542981   -2.527746   -2.171614
H     -2.414072    0.464054   -2.871152
H     -2.226911   -0.901973   -4.004586
H     -0.123586    0.406244   -2.998535
H     -0.027427   -1.313947   -3.388715
H     -0.467447   -3.029582   -1.774900
H     -0.023876   -2.813322   -0.082941
H      1.212307   -2.664317   -1.391743
