47

C     -3.552542   -0.856188    2.116218
C     -3.336118   -1.769430    0.894547
C     -3.388250   -3.233876    1.355745
C     -4.435402   -1.539840   -0.159947
O     -2.036957   -1.550593    0.326682
C     -1.546089   -0.342253   -0.194012
O     -2.293564    0.670086   -0.266442
N     -0.171194   -0.265031   -0.633989
C      0.694545   -1.440124   -0.448696
C      1.058447   -1.595677    1.003991
C      1.907918   -0.661867    1.619903
C      2.220966   -0.782238    2.977265
C      1.688689   -1.833805    3.728328
C      0.844605   -2.768362    3.122391
C      0.530622   -2.652602    1.764951
C      0.385604    0.964007   -1.241009
C     -0.272310    1.240757   -2.612265
C      0.210663    2.570870   -3.203536
C      0.055164    3.691444   -2.211309
O      0.280535    4.841490   -2.554973
C     -0.402691    3.400640   -0.808677
C      0.325734    2.168038   -0.251165
H     -3.611283    0.210617    1.818858
H     -2.712199   -0.972483    2.834067
H     -4.501108   -1.114974    2.634460
H     -2.604226   -3.426060    2.119538
H     -3.206447   -3.914801    0.496467
H     -4.378356   -3.478051    1.798261
H     -4.224924   -2.142099   -1.069575
H     -4.498928   -0.472812   -0.454758
H     -5.428726   -1.837228    0.240367
H      1.629889   -1.350469   -1.041799
H      0.180517   -2.347332   -0.835475
H      2.324069    0.159336    1.050121
H      2.874518   -0.058884    3.447407
H      1.930477   -1.924611    4.779372
H      0.432397   -3.582200    3.704806
H     -0.125410   -3.384033    1.310174
H      1.465826    0.806376   -1.460709
H     -1.378238    1.273424   -2.521034
H     -0.021459    0.416511   -3.314764
H     -0.380780    2.799727   -4.116048
H      1.281168    2.486025   -3.489873
H     -1.498117    3.217737   -0.818990
H     -0.207265    4.274079   -0.148907
H      1.365262    2.471461    0.005408
H     -0.148639    1.875691    0.710196
