47

C      0.741999    3.130278    0.376346
C      0.621144    1.840599    1.201541
C      1.881557    1.684747    2.071205
C     -0.641983    1.928515    2.078901
O      0.510950    0.752468    0.270998
C      0.366217   -0.605410    0.591602
O      0.434252   -0.984878    1.789318
N      0.144121   -1.566210   -0.465786
C     -0.148388   -1.069090   -1.820250
C     -1.562088   -0.556944   -1.886574
C     -1.823923    0.824186   -1.916458
C     -3.142503    1.293537   -1.920248
C     -4.207824    0.389596   -1.896425
C     -3.955949   -0.986163   -1.873474
C     -2.638349   -1.459699   -1.867063
C      0.156170   -3.025274   -0.209349
C     -0.972685   -3.441571    0.784986
C     -0.461435   -4.145463    2.054027
C      0.534356   -5.216966    1.701344
O      0.525093   -6.282194    2.303524
C      1.570430   -4.968429    0.637642
C      1.569911   -3.495748    0.206486
H     -0.152243    3.254626   -0.273838
H      0.820245    4.017324    1.034965
H      1.640204    3.091849   -0.278508
H      2.768408    1.519318    1.426349
H      2.053223    2.599055    2.679549
H      1.790584    0.829763    2.771983
H     -0.606456    2.820921    2.735688
H     -1.542481    1.994629    1.438873
H     -0.746491    1.039571    2.725870
H     -0.021783   -1.869871   -2.578406
H      0.580369   -0.276530   -2.099360
H     -1.010857    1.538876   -1.928198
H     -3.337623    2.359625   -1.933162
H     -5.226066    0.756136   -1.895937
H     -4.781940   -1.686030   -1.859332
H     -2.456806   -2.527160   -1.839090
H     -0.064060   -3.564094   -1.157840
H     -1.668664   -4.141211    0.265620
H     -1.592097   -2.565702    1.080261
H      0.024243   -3.408906    2.725409
H     -1.324603   -4.587674    2.598460
H      2.576127   -5.231791    1.030067
H      1.353472   -5.616340   -0.236327
H      1.957800   -2.880227    1.045877
H      2.265580   -3.367432   -0.651034
