24

O     -0.153950    1.020300    2.100466
C      0.240733    0.365827    1.097482
C      1.718166    0.431517    0.772286
N      2.017381    0.009571   -0.595662
C      2.488901    0.766863   -1.603884
C      2.599897   -0.004103   -2.747876
C      2.173695   -1.279051   -2.416688
C      1.839657   -1.227491   -1.080594
S      1.058616   -2.510075   -0.126385
C     -0.513885   -1.660240   -0.295880
C     -0.773951   -0.402758    0.314119
C     -2.054832    0.163600    0.164178
C     -3.038083   -0.474707   -0.596539
Br    -4.760576    0.326035   -0.797200
C     -2.758930   -1.690738   -1.219411
C     -1.503200   -2.278701   -1.071374
H      2.271210   -0.217034    1.484924
H      2.076536    1.472899    0.926641
H      2.725102    1.820082   -1.523464
H      2.932826    0.331270   -3.720849
H      2.089528   -2.130568   -3.078467
H     -2.286694    1.118539    0.620226
H     -3.516358   -2.183903   -1.815053
H     -1.303219   -3.228192   -1.552005
