36

C     -2.516931   -2.342531   -2.479157
C     -2.632557   -1.663224   -1.124376
O     -2.069741   -0.357978   -1.197057
C     -2.011165    0.502522   -0.095611
O     -2.553401    0.169815    0.994989
C     -1.336111    1.846233   -0.246826
C     -1.116478    2.571416    1.094499
C      0.056740    1.974278    1.869399
C      1.361292    2.187520    1.097369
C      1.329259    1.639611   -0.352622
C      1.988728    0.246362   -0.500149
C      1.346356   -0.858492    0.353379
C      1.934848   -2.204361    0.032107
C      1.647009   -2.841919   -1.106542
C     -0.038919    1.694260   -1.018302
O     -0.096653    1.593488   -2.235606
H     -1.449568   -2.418050   -2.775929
H     -3.067637   -1.756710   -3.245258
H     -2.949687   -3.363630   -2.424934
H     -3.704038   -1.595320   -0.836484
H     -2.086568   -2.264756   -0.365321
H     -2.021298    2.484122   -0.847468
H     -0.912995    3.647681    0.897572
H     -2.036994    2.533149    1.716505
H      0.135175    2.481691    2.855101
H     -0.117801    0.896046    2.062318
H      2.204052    1.740176    1.667645
H      1.559925    3.282131    1.059553
H      1.975641    2.329230   -0.941751
H      1.959553   -0.046586   -1.572969
H      3.062811    0.327851   -0.221538
H      1.534821   -0.650240    1.427110
H      0.252140   -0.897666    0.191995
H      2.580534   -2.686385    0.760287
H      2.072188   -3.820528   -1.303620
H      0.986302   -2.396621   -1.844098
