41

O      1.553379   -2.969362    1.080553
C      1.718005   -1.781593    1.316003
C      2.055350   -0.835370    0.189783
C      1.050298   -0.904678   -0.988815
N     -0.321007   -0.500544   -0.594728
C     -0.535907    0.947935   -0.690199
C     -0.486773    1.403406   -2.159489
C      0.411041    0.500862   -3.024604
C      1.575495   -0.068294   -2.197428
O      2.439044   -0.830935   -3.003619
C      1.603068   -1.283990    2.733849
N      0.357226   -0.522095    2.916462
C      0.394680    0.843133    2.845323
N     -0.742905    1.573999    2.953044
C     -1.946465    0.978850    3.134816
C     -3.104948    1.757885    3.234837
C     -4.347065    1.144054    3.418610
C     -4.436015   -0.248324    3.503039
C     -3.283523   -1.034339    3.403801
C     -2.028190   -0.424998    3.218907
C     -0.839591   -1.167414    3.104888
O     -0.877839   -2.428724    3.164431
H      3.065509   -1.109847   -0.184228
H      2.122047    0.205044    0.571196
H      0.986416   -1.966627   -1.313744
H     -0.545771   -0.820044    0.372605
H     -1.528832    1.204990   -0.260705
H      0.231838    1.491912   -0.097264
H     -0.110873    2.449070   -2.198371
H     -1.513711    1.400419   -2.585628
H     -0.196576   -0.338300   -3.430434
H      0.805730    1.083701   -3.885061
H      2.157528    0.802493   -1.820029
H      1.903623   -1.558992   -3.415091
H      1.635434   -2.139898    3.444000
H      2.491419   -0.658429    2.972870
H      1.332096    1.362389    2.689663
H     -3.045112    2.837289    3.169237
H     -5.241935    1.748025    3.495341
H     -5.400104   -0.719458    3.644943
H     -3.376774   -2.111310    3.470296
