48

C     -1.314439   -3.106851    0.180288
C     -0.006677   -3.053584    0.990197
C      0.862400   -1.954407    0.472150
O      2.078338   -2.066927    0.527496
C      0.230003   -0.753808   -0.194265
N      1.073075    0.467589   -0.049163
C      1.599578    0.800894    1.173917
N      2.358904    1.913513    1.329326
C      2.627750    2.734386    0.287749
C      3.412879    3.877157    0.480765
C      3.691907    4.723977   -0.595386
C      3.188476    4.431903   -1.865988
C      2.403731    3.291775   -2.066501
C      2.117286    2.432767   -0.987815
C      1.332534    1.274672   -1.134956
O      0.864749    0.985247   -2.272170
C     -1.259682   -0.543642    0.274290
C     -1.350673   -0.128636    1.763777
C     -1.861381    0.651188   -0.527019
N     -2.060841   -1.817202    0.128257
C     -3.062829   -1.854402   -0.974113
C     -3.749424   -3.231829   -1.120862
C     -3.710833   -4.010840    0.194470
C     -2.262843   -4.234701    0.679395
O     -2.275846   -4.303767    2.084523
H     -1.004561   -3.375861   -0.858692
H      0.523685   -4.024420    0.872312
H     -0.190593   -2.903780    2.072518
H      0.182038   -1.046229   -1.266289
H      1.425262    0.177660    2.040808
H      3.807042    4.110312    1.462253
H      4.298942    5.607305   -0.444671
H      3.406704    5.090154   -2.697028
H      2.024527    3.086379   -3.059970
H     -0.793434   -0.811237    2.430227
H     -0.965986    0.899216    1.932153
H     -2.412669   -0.137501    2.091674
H     -2.916771    0.840126   -0.238516
H     -1.311428    1.592346   -0.314007
H     -1.800899    0.484031   -1.622106
H     -3.864951   -1.116321   -0.764684
H     -2.582368   -1.606529   -1.945381
H     -4.804510   -3.096106   -1.444088
H     -3.234247   -3.826257   -1.907594
H     -4.217584   -4.991482    0.062822
H     -4.284087   -3.436778    0.956682
H     -1.904864   -5.201968    0.249854
H     -1.602156   -4.982116    2.352787
