48

C     -1.800271    2.631423    0.271836
C     -0.681835    2.501291    1.313221
C      0.572801    1.965932    0.690904
O      1.649741    2.296382    1.165287
C      0.550966    0.961272   -0.446958
N      1.007831   -0.384191    0.007945
C      0.614007   -0.884043    1.223835
N      0.997345   -2.119444    1.630865
C      1.784245   -2.904241    0.859720
C      2.156406   -4.177816    1.305918
C      2.976357   -4.984782    0.512469
C      3.427656   -4.521636   -0.726492
C      3.060821   -3.249740   -1.177802
C      2.233674   -2.430397   -0.385240
C      1.833296   -1.145191   -0.792766
O      2.235363   -0.696890   -1.903602
C     -0.806519    0.940217   -1.279676
C     -1.042973   -0.443747   -1.952966
C     -0.664548    1.932599   -2.470057
N     -2.008725    1.364198   -0.479314
C     -2.669033    0.314327    0.340578
C     -4.009134    0.804679    0.892569
C     -3.827142    2.075600    1.714949
C     -3.118659    3.156530    0.887691
O     -3.963135    3.595071   -0.147108
H     -1.485217    3.431107   -0.429206
H     -0.473284    3.506014    1.742933
H     -0.977861    1.840202    2.151342
H      1.336327    1.359345   -1.128890
H      0.017983   -0.297111    1.902435
H      1.812364   -4.543073    2.265742
H      3.263053   -5.969493    0.858330
H      4.062895   -5.149219   -1.338176
H      3.422319   -2.912749   -2.141503
H     -2.015005   -0.449078   -2.492354
H     -0.250833   -0.675673   -2.695425
H     -1.045915   -1.273698   -1.216699
H      0.054963    1.555409   -3.229450
H     -0.273121    2.918917   -2.148150
H     -1.646221    2.085635   -2.968603
H     -2.920257   -0.574695   -0.269147
H     -2.026021   -0.013007    1.174889
H     -4.709248    0.998907    0.050333
H     -4.456261    0.014533    1.533972
H     -4.822319    2.446435    2.043168
H     -3.243674    1.848550    2.632701
H     -2.883464    4.019092    1.555135
H     -4.649398    4.180397    0.268233
