41

O      0.380614    0.946233    1.284053
C      0.573216    0.193108    0.341379
C     -0.517601   -0.752820   -0.092207
C     -0.603035   -1.983408    0.839950
N     -0.909522   -1.566810    2.230709
C     -1.470223   -2.628398    3.092593
C     -1.099922   -4.036444    2.618988
C     -1.624740   -4.289595    1.197790
C     -1.636015   -3.014044    0.322939
O     -1.355662   -3.357401   -1.010255
C      1.890972    0.240129   -0.383233
N      1.968684    1.451272   -1.215270
C      1.486093    1.403660   -2.493755
N      1.513704    2.504365   -3.286335
C      2.010155    3.682431   -2.836683
C      2.027043    4.802008   -3.676795
C      2.534101    6.018471   -3.211328
C      3.024584    6.120963   -1.906459
C      3.011198    5.007569   -1.060196
C      2.503796    3.777741   -1.520577
C      2.466066    2.627687   -0.712048
O      2.888641    2.682036    0.477198
H     -1.489336   -0.212741   -0.111170
H     -0.312330   -1.083843   -1.132675
H      0.399241   -2.469321    0.833318
H     -1.602351   -0.781051    2.218611
H     -1.088752   -2.484425    4.125567
H     -2.580472   -2.544268    3.132081
H     -1.526315   -4.791168    3.314691
H      0.006724   -4.146358    2.636982
H     -2.659298   -4.693650    1.253549
H     -0.989884   -5.072746    0.727661
H     -2.645563   -2.541801    0.381888
H     -2.170192   -3.798073   -1.368454
H      2.722220    0.206443    0.354327
H      2.015716   -0.667836   -1.014301
H      1.072767    0.485143   -2.892328
H      1.647600    4.731813   -4.688790
H      2.546331    6.883072   -3.862326
H      3.415789    7.065149   -1.550056
H      3.396379    5.110573   -0.053209
