48

C     -0.511004   -0.930495    1.857544
C     -1.668887   -1.654052    1.210521
O     -2.536020   -2.214988    1.933190
C     -1.789283   -1.778634   -0.243273
C     -0.851249   -1.340165   -1.095256
C     -1.173598   -1.419678   -2.571021
C      0.339988   -0.518145   -0.586674
C      1.565044   -0.559180   -1.562720
C      1.546027    0.544065   -2.638233
C      1.829758    1.902595   -2.050241
C      3.221508    2.299659   -1.658010
O      0.911339    2.687156   -1.867854
C      0.748466   -0.878679    0.903097
C      1.418636   -2.284604    0.930732
C      1.780885    0.175981    1.432955
C      1.682941    0.407200    2.939842
C      0.327561    1.016925    3.330351
C     -0.899497    0.441593    2.538084
C     -2.054496    0.226305    3.551436
C     -1.389143    1.490938    1.508605
H     -0.230888   -1.583903    2.716414
H     -2.676264   -2.274531   -0.621659
H     -0.292489   -1.723704   -3.167884
H     -1.540243   -0.432787   -2.921747
H     -1.963048   -2.172715   -2.783540
H     -0.028607    0.520789   -0.587503
H      1.634735   -1.555409   -2.048116
H      2.524189   -0.452213   -1.019672
H      2.324083    0.316656   -3.398417
H      0.575666    0.565866   -3.172215
H      3.944346    1.486090   -1.878218
H      3.253558    2.520720   -0.570720
H      3.522523    3.206323   -2.223179
H      2.339688   -2.322448    0.314464
H      0.724166   -3.063837    0.552002
H      1.715177   -2.561449    1.964957
H      1.643104    1.156898    0.930554
H      2.823536   -0.136896    1.207045
H      1.834497   -0.555454    3.475065
H      2.496746    1.093351    3.260889
H      0.212262    0.848957    4.424598
H      0.387401    2.121648    3.209322
H     -3.010581   -0.000758    3.034330
H     -2.222647    1.145026    4.155070
H     -1.818784   -0.604411    4.251071
H     -0.546829    1.952143    0.958425
H     -2.104147    1.044384    0.786198
H     -1.907171    2.330200    2.021688
