48

C      0.858285   -1.302295    0.284006
C      1.773540   -0.565821   -0.697710
O      3.024951   -0.636417   -0.572328
C      1.254025    0.384878   -1.689162
C      0.057176    0.958198   -1.544986
C     -0.395240    1.978099   -2.552330
C     -0.824682    0.608205   -0.363746
C     -0.729571    1.696461    0.748858
C      0.634282    1.859250    1.439095
C      0.701945    3.169530    2.175880
C      1.667838    4.232387    1.747539
O     -0.025213    3.362877    3.138831
C     -0.666015   -0.913070    0.042195
C     -1.495673   -1.158720    1.332689
C     -1.302671   -1.770832   -1.122241
C     -0.510213   -3.015629   -1.522184
C      0.024427   -3.725538   -0.290722
C      1.127715   -2.882813    0.413017
C      1.161548   -3.285868    1.910257
C      2.496421   -3.329606   -0.172004
H      1.150017   -0.867239    1.257479
H      1.900534    0.685198   -2.505949
H     -1.395598    2.384033   -2.293710
H      0.325757    2.822378   -2.582251
H     -0.454637    1.511399   -3.558256
H     -1.875717    0.709844   -0.721770
H     -1.507306    1.521909    1.522166
H     -0.997639    2.669424    0.277872
H      1.454576    1.820287    0.694115
H      0.783868    1.054068    2.184178
H      1.473626    4.506449    0.689381
H      1.558813    5.140077    2.378749
H      2.706274    3.851758    1.841954
H     -2.502341   -0.696109    1.242831
H     -1.670504   -2.233506    1.520845
H     -0.994566   -0.729824    2.225563
H     -1.429235   -1.176612   -2.053400
H     -2.335717   -2.086536   -0.853365
H      0.328698   -2.732804   -2.194826
H     -1.173806   -3.705098   -2.088343
H     -0.824316   -3.946201    0.390506
H      0.409727   -4.723793   -0.595600
H      0.224626   -3.019527    2.434422
H      1.996950   -2.773758    2.435257
H      1.307366   -4.382728    2.021091
H      2.639382   -4.426538   -0.058025
H      3.340035   -2.850184    0.368161
H      2.565738   -3.102249   -1.256867
