46

C      1.103686   -1.888794    3.907069
O     -0.224796   -2.368386    3.722249
C     -0.869654   -2.475419    2.478914
C     -0.220690   -2.141257    1.278647
C     -0.892739   -2.236438    0.053926
C     -0.217062   -1.903266   -1.221102
C      0.541287   -0.804197   -1.425502
C      0.611366    0.287836   -0.420476
O     -0.459542    0.717437    0.093566
C      1.906630    0.890056   -0.019817
C      1.942320    2.173601    0.555894
C      3.157931    2.738999    0.952947
C      4.349060    2.026375    0.790767
Cl     5.872672    2.737749    1.291824
C      4.324474    0.746313    0.228611
C      3.112250    0.179172   -0.173762
N      1.231122   -0.624313   -2.678205
C      1.633371   -1.572528   -3.546540
N      2.277512   -1.030605   -4.597550
C      2.242425    0.289834   -4.313121
N      1.614742    0.549232   -3.150912
C     -2.204344   -2.719476    0.026398
C     -2.878136   -3.059261    1.216165
O     -4.206789   -3.513269    1.185897
C     -4.988353   -3.680051    0.006070
C     -2.198587   -2.932531    2.456322
O     -2.780018   -3.243558    3.700998
C     -4.101166   -3.725024    3.924817
H      1.187064   -0.843091    3.543779
H      1.824653   -2.540526    3.367810
H      1.349467   -1.911179    4.989192
H      0.812290   -1.820245    1.289787
H     -0.381883   -2.588272   -2.042525
H      1.031875    2.744242    0.689481
H      3.171774    3.729946    1.388115
H      5.243778    0.187923    0.108485
H      3.118323   -0.820672   -0.589843
H      1.488796   -2.636265   -3.416527
H      2.673604    1.053585   -4.946360
H     -2.699882   -2.815735   -0.930684
H     -4.519280   -4.435726   -0.658124
H     -5.090653   -2.709121   -0.525603
H     -5.999703   -4.036445    0.290057
H     -4.245223   -3.881474    5.013841
H     -4.847209   -2.977825    3.579621
H     -4.247917   -4.699317    3.412859
