38

C      5.778577    1.039236   -0.260780
S      5.316091    2.230657   -1.556076
C      3.661037    1.565179   -1.743476
C      2.609199    2.075324   -0.974896
C      1.318623    1.558737   -1.121154
C      1.071533    0.512581   -2.029088
C     -0.290023   -0.033279   -2.229476
C     -1.144446   -0.361209   -1.237800
C     -0.719258   -0.341219    0.184387
O      0.332460   -0.956256    0.512127
C     -1.503266    0.374597    1.222480
C     -2.447300    1.358425    0.869274
C     -3.175292    2.029136    1.856312
C     -2.967058    1.732296    3.205910
Cl    -3.881757    2.575921    4.442188
C     -2.026125    0.764924    3.569062
C     -1.295759    0.091565    2.585286
N     -2.474250   -0.811616   -1.568443
C     -3.326590   -1.490430   -0.777703
N     -4.485473   -1.747775   -1.413701
C     -4.282991   -1.188808   -2.626096
N     -3.067560   -0.619504   -2.733730
C      2.124911    0.030266   -2.820778
C      3.415034    0.548330   -2.672562
H      6.822424    1.237116    0.057865
H      5.107234    1.150115    0.616392
H      5.712579    0.003386   -0.654547
H      2.789162    2.875426   -0.268152
H      0.512899    1.987868   -0.539279
H     -0.594529   -0.197089   -3.256103
H     -2.617614    1.618845   -0.167376
H     -3.898532    2.782262    1.570416
H     -1.859660    0.533214    4.613392
H     -0.575102   -0.656688    2.890920
H     -3.115154   -1.803453    0.236424
H     -5.014726   -1.198599   -3.422490
H      1.949739   -0.756073   -3.545000
H      4.222125    0.158415   -3.279690
