42

C      2.239382    2.608538    3.828801
N      1.115339    2.667032    2.886665
C     -0.126207    3.331379    3.301383
C      1.222625    2.063432    1.571771
C      2.153413    1.034281    1.321894
C      2.236761    0.436793    0.061897
C      1.380052    0.840200   -0.973065
C      1.414274    0.188025   -2.300629
C      1.389048   -1.149485   -2.501428
C      1.182588   -2.107831   -1.383702
O      1.929288   -3.121374   -1.316378
C      0.123389   -1.920682   -0.361144
C      0.308558   -2.414289    0.942261
C     -0.659351   -2.193301    1.926522
C     -1.826070   -1.487930    1.617578
Cl    -3.031691   -1.198243    2.857946
C     -2.030277   -1.013167    0.318850
C     -1.065111   -1.232528   -0.668036
N      1.529357   -1.684529   -3.833201
C      2.064823   -1.091682   -4.918670
N      2.040556   -1.912055   -5.986629
C      1.464951   -3.025959   -5.486186
N      1.154495   -2.902605   -4.182037
C      0.484771    1.892004   -0.748578
C      0.397470    2.490420    0.511036
H      3.177725    2.910158    3.316697
H      2.089692    3.299278    4.685467
H      2.344576    1.577801    4.227150
H     -0.997353    2.681576    3.071215
H     -0.137277    3.530304    4.393946
H     -0.231252    4.300548    2.770667
H      2.810058    0.673347    2.101045
H      2.961833   -0.350844   -0.101205
H      1.412369    0.851019   -3.155407
H      1.214366   -2.946007    1.206124
H     -0.497619   -2.564260    2.930574
H     -2.934565   -0.471078    0.073394
H     -1.243756   -0.857336   -1.667798
H      2.487024   -0.096034   -4.940577
H      1.278300   -3.919255   -6.066691
H     -0.170290    2.230066   -1.542448
H     -0.316864    3.290346    0.646923
