35

O     -2.322716   -1.367642   -1.491532
C     -1.423582   -0.541831   -1.176533
C     -1.719827    0.456515   -0.116952
C     -0.893894    0.638588    0.936954
C      0.311188   -0.173539    1.218168
C      1.508118    0.473523    1.559443
C      2.663180   -0.269900    1.819936
C      2.627502   -1.669526    1.761698
O      3.773216   -2.420565    2.013833
C      1.429338   -2.320386    1.451880
C      0.273136   -1.579137    1.191514
N     -2.910595    1.262373   -0.231615
C     -3.694383    1.410102   -1.316321
N     -4.720343    2.247058   -1.069414
C     -4.510834    2.593125    0.218780
N     -3.416486    2.005054    0.737807
C     -0.113468   -0.590547   -1.873544
C      0.328501   -1.789934   -2.460253
C      1.574345   -1.852646   -3.091405
C      2.388694   -0.718182   -3.151204
Cl     3.954113   -0.801103   -3.937894
C      1.952977    0.482930   -2.584732
C      0.707756    0.550011   -1.953441
H     -1.087524    1.458049    1.618146
H      1.552412    1.555010    1.602578
H      3.584673    0.242317    2.065587
H      4.656243   -1.978746    2.241701
H      1.393169   -3.401764    1.416774
H     -0.649277   -2.101944    0.972694
H     -3.524709    0.934295   -2.273340
H     -5.149315    3.268970    0.771397
H     -0.280693   -2.684035   -2.413174
H      1.907131   -2.784884   -3.529726
H      2.577897    1.365573   -2.632966
H      0.388514    1.493195   -1.528726
