46

C      1.371103   -1.147795   -3.742621
O      0.810911    0.123428   -3.428114
C      0.010968    0.396475   -2.307248
C     -0.308377   -0.618925   -1.384592
C     -1.093323   -0.348625   -0.260524
C     -1.359312   -1.434321    0.710820
C     -1.247196   -1.316883    2.054853
C     -0.714401   -0.085387    2.695644
O     -1.325539    0.384975    3.692516
C      0.512599    0.595781    2.214067
C      0.654221    1.985233    2.375584
C      1.776943    2.645166    1.868482
C      2.775389    1.924137    1.207146
Cl     4.176812    2.756596    0.559645
C      2.655558    0.538986    1.062526
C      1.534515   -0.124569    1.568477
N     -1.611031   -2.418966    2.912294
C     -2.383656   -3.485232    2.623677
N     -2.500659   -4.307348    3.684043
C     -1.761975   -3.679257    4.623704
N     -1.219165   -2.534219    4.169121
C     -1.623901    0.934606   -0.084941
C     -1.305294    1.968256   -0.981369
O     -1.778172    3.277733   -0.798203
C     -2.561360    3.707143    0.310869
C     -0.484287    1.708605   -2.091195
O     -0.198583    2.799840   -2.933723
C      0.673943    2.796352   -4.057123
H      0.563283   -1.895933   -3.887167
H      2.058159   -1.473013   -2.932655
H      1.949156   -1.064975   -4.685875
H      0.074233   -1.622348   -1.518046
H     -1.606941   -2.396454    0.284325
H     -0.117407    2.563579    2.868323
H      1.866438    3.717369    1.985773
H      3.428328   -0.024673    0.555603
H      1.461184   -1.197461    1.444839
H     -2.865778   -3.668426    1.671961
H     -1.619110   -4.054734    5.627738
H     -2.269499    1.125546    0.761074
H     -2.761359    4.793103    0.213355
H     -2.010135    3.531563    1.258096
H     -3.530724    3.166839    0.326202
H      0.281038    2.122889   -4.847283
H      1.697156    2.496866   -3.747642
H      0.723804    3.822737   -4.474424
