39

C     -3.745544    2.602806   -0.029996
O     -2.848123    2.608049    1.075427
C     -1.596580    1.972735    1.085068
C     -1.098696    1.278091   -0.035181
C      0.142020    0.627524    0.023851
C      0.623969   -0.122011   -1.157264
C      1.110147   -1.383237   -1.119759
C      1.068737   -2.201352    0.120064
O      2.108442   -2.827701    0.460752
C     -0.154494   -2.319968    0.952572
C     -0.046098   -2.572314    2.331524
C     -1.191442   -2.643131    3.130116
C     -2.456339   -2.472412    2.559895
Cl    -3.891112   -2.551027    3.565538
C     -2.576271   -2.240094    1.186859
C     -1.433739   -2.170426    0.384893
N      1.653688   -1.987085   -2.311119
C      2.112674   -1.376577   -3.421551
N      2.564031   -2.271521   -4.321267
C      2.353516   -3.448122   -3.693710
N      1.806625   -3.289408   -2.473828
C      0.913892    0.718492    1.192812
C      0.428916    1.411266    2.302985
C     -0.825221    2.033475    2.254560
O     -1.313043    2.717319    3.366845
H     -4.658141    3.171839    0.241394
H     -3.271853    3.088963   -0.908870
H     -4.037332    1.560648   -0.279575
H     -1.680740    1.214510   -0.945233
H      0.530093    0.381124   -2.110239
H      0.925465   -2.690676    2.795069
H     -1.093806   -2.824806    4.192834
H     -3.553823   -2.112060    0.739750
H     -1.550397   -1.994789   -0.677014
H      2.145152   -0.306558   -3.576514
H      2.600818   -4.410411   -4.121075
H      1.889245    0.251163    1.246355
H      1.028917    1.463844    3.202488
H     -0.780786    2.779088    4.226954
