45

O      1.533607   -1.287149   -0.602159
C      1.668371   -1.067843    0.632998
C      1.034272   -2.001482    1.598657
C     -0.251287   -2.380264    1.448022
C     -1.165248   -1.735868    0.488238
C     -1.654315   -2.452005   -0.613042
C     -2.521297   -1.833484   -1.518745
C     -2.924141   -0.507908   -1.315573
C     -2.456343    0.208434   -0.198628
O     -2.891311    1.512276    0.080926
C     -3.210631    2.482603   -0.879462
C     -2.519614    2.572072   -2.104755
C     -2.838211    3.582981   -3.019467
C     -3.843792    4.507859   -2.718692
C     -4.530557    4.424555   -1.501935
C     -4.208641    3.420208   -0.582767
C     -1.581095   -0.412326    0.699664
N      1.846435   -2.565884    2.648006
C      1.441554   -3.144601    3.795985
N      2.492252   -3.516405    4.552053
C      3.545522   -3.131137    3.799885
N      3.168186   -2.549490    2.646036
C      2.487875    0.084677    1.083452
C      3.473414    0.623245    0.234478
C      4.245623    1.714735    0.648181
C      4.033480    2.285483    1.907703
Cl     5.007151    3.650681    2.424605
C      3.055554    1.760464    2.758475
C      2.283004    0.666354    2.349617
H     -0.666984   -3.167096    2.066621
H     -1.361204   -3.481862   -0.772592
H     -2.903701   -2.387452   -2.365781
H     -3.624916   -0.054997   -2.004855
H     -1.725389    1.874902   -2.342200
H     -2.304192    3.649618   -3.960352
H     -4.086149    5.294189   -3.424119
H     -5.309898    5.140103   -1.270365
H     -4.736043    3.367865    0.362162
H     -1.236901    0.136533    1.572351
H      0.410795   -3.276572    4.098172
H      4.577630   -3.266703    4.093049
H      3.648546    0.198394   -0.747803
H      5.002281    2.117454   -0.014997
H      2.881965    2.204075    3.731199
H      1.518545    0.284321    3.017302
