35

O     -0.047156   -1.029768   -2.805183
C     -0.388592   -0.187911   -1.929707
C      0.592917    0.843471   -1.509442
C      1.842084    0.507427   -1.125064
C      2.326503   -0.878389   -0.932003
C      3.601795   -1.228183   -1.401191
C      4.097737   -2.520674   -1.204237
C      3.334149   -3.470757   -0.518938
O      3.840081   -4.755009   -0.331422
C      2.071479   -3.120520   -0.022799
C      1.573483   -1.828939   -0.218509
N      0.225895    2.236358   -1.585496
C     -0.812701    2.771745   -2.254250
N     -0.853793    4.109631   -2.105588
C      0.213938    4.347910   -1.314060
N      0.877953    3.221465   -0.992864
C     -1.755605   -0.244054   -1.352777
C     -2.767717   -0.974334   -2.002941
C     -4.056120   -1.036211   -1.463618
C     -4.348641   -0.376094   -0.267069
Cl    -5.965809   -0.455669    0.407616
C     -3.349598    0.344372    0.393035
C     -2.059983    0.408977   -0.142499
H      2.567816    1.295387   -0.963882
H      4.208241   -0.503018   -1.930270
H      5.077754   -2.783230   -1.581967
H      3.312019   -5.465139    0.162297
H      1.479665   -3.844868    0.522213
H      0.610744   -1.568746    0.202652
H     -1.523581    2.210716   -2.846738
H      0.504436    5.333673   -0.976934
H     -2.566106   -1.490612   -2.933237
H     -4.826181   -1.597516   -1.977399
H     -3.569790    0.852084    1.323493
H     -1.301625    0.961251    0.397279
