39

C      3.319813    3.093341   -0.193261
O      3.118747    2.205108   -1.287859
C      1.889375    1.610378   -1.611785
C      0.710792    1.883598   -0.890418
C     -0.493005    1.234658   -1.216683
C     -1.736812    1.477551   -0.450327
C     -1.825948    1.498724    0.899573
C     -0.678607    1.134973    1.771461
O     -0.411607    1.881069    2.752046
C      0.145616   -0.077343    1.539882
C      1.489980   -0.102773    1.951423
C      2.286156   -1.223708    1.699235
C      1.746646   -2.334526    1.044173
Cl     2.749765   -3.736562    0.721481
C      0.406205   -2.326957    0.647854
C     -0.393023   -1.207866    0.897902
N     -3.071565    1.848827    1.536447
C     -4.105396    2.544008    1.022263
N     -5.093055    2.692825    1.925875
C     -4.598529    2.053213    3.007025
N     -3.373181    1.541439    2.785640
C     -0.527501    0.363838   -2.313429
C      0.634423    0.099620   -3.040538
C      1.843208    0.713838   -2.688552
O      3.005823    0.438979   -3.406582
H      3.061895    2.587357    0.761174
H      4.387574    3.391655   -0.160019
H      2.700014    4.005542   -0.322705
H      0.724049    2.592983   -0.074471
H     -2.636756    1.601107   -1.037916
H      1.930914    0.753714    2.446183
H      3.323455   -1.225288    2.008921
H     -0.017487   -3.186835    0.144903
H     -1.429772   -1.225263    0.586557
H     -4.142824    2.958257    0.023728
H     -5.125611    1.965791    3.947421
H     -1.450738   -0.129731   -2.591860
H      0.596053   -0.588602   -3.875286
H      3.006079   -0.204409   -4.189494
