29

C     -2.049491   -2.049452    0.623654
O     -0.850040   -1.712630   -0.041685
C     -0.851692   -0.383121   -0.568848
O     -1.945614   -0.129357   -1.453597
C     -1.995242   -1.025593   -2.543987
C      0.535155   -0.040866   -1.138306
Br     1.258855   -1.159460   -2.561073
C      0.384294    1.448279   -1.492178
C     -0.421006    1.996972   -0.275975
C      0.470462    2.738226    0.722491
O      1.083805    1.792926    1.579131
C      0.559268    0.528381    1.229292
O      0.440135   -0.319194    2.340358
C      1.363152   -0.088468    0.119503
O      2.530888   -0.437655    0.198906
C     -0.774095    0.733273    0.501697
Br    -2.325760    1.019635    1.656851
H     -2.199268   -3.144899    0.536985
H     -1.956239   -1.818018    1.704277
H     -2.955451   -1.563938    0.200835
H     -3.050877   -1.116650   -2.871550
H     -1.640454   -2.051139   -2.303320
H     -1.423579   -0.609094   -3.398370
H     -0.200680    1.568741   -2.430030
H      1.373555    1.938963   -1.627911
H     -1.305734    2.591314   -0.594170
H      1.244414    3.349450    0.211612
H     -0.153506    3.422017    1.337440
H      1.334313   -0.350046    2.769925
