22

O      3.693261   -0.440441    0.095952
C      2.830063   -0.035887    1.122623
C      1.401418   -0.181561    0.686282
C      0.647001    0.769648    0.028562
N     -0.515111    0.287770   -0.351219
C     -0.592677   -1.004142   -0.001301
C      0.592135   -1.331453    0.660564
N      0.928240   -2.643910    1.134896
O      2.126957   -2.888978    1.761136
O      0.117517   -3.582530    0.995313
C     -1.270094    1.184492   -1.210058
C     -0.364323    2.450716   -1.311423
C      0.853203    2.085566   -0.507099
O      1.879955    2.797451   -0.354188
H      3.694037   -1.432852    0.097827
H      3.034637    1.029309    1.357357
H      3.023468   -0.607055    2.055733
H     -1.408317   -1.667839   -0.256794
H     -2.249536    1.425673   -0.744490
H     -1.415951    0.721615   -2.209810
H     -0.082490    2.654533   -2.366475
H     -0.866900    3.335023   -0.864842
