49

C      1.320686    0.648948   -4.790104
C      0.877719    0.236060   -3.385369
C      1.562547   -1.069005   -2.897873
C      1.137551   -2.281459   -3.746627
C      1.328941   -1.356978   -1.384551
N     -0.091187   -1.567939   -1.064345
C     -0.521689   -2.042344    0.216824
O      0.328949   -2.411102    1.071793
O     -1.894585   -2.072278    0.502789
C     -2.491490   -2.427047    1.759013
C     -2.015936   -1.474065    2.873122
C     -2.168829   -3.889529    2.120088
C     -4.012018   -2.279938    1.597276
C      1.932707   -0.276260   -0.512408
O      3.165256   -0.328553   -0.249388
C      1.112156    0.840422    0.007375
C      1.592023    1.740446    0.874777
C      0.749029    2.865411    1.425879
C      0.298489    3.820897    0.314729
C     -0.450569    2.329476    2.217952
H      2.428584    0.695485   -4.852456
H      0.912771    1.654971   -5.024580
H      0.934741   -0.061180   -5.550084
H      1.139568    1.073660   -2.707087
H     -0.227250    0.129828   -3.379174
H      2.661028   -0.948777   -3.036198
H      1.514361   -2.181975   -4.785309
H      1.568871   -3.217154   -3.331699
H      0.032212   -2.380867   -3.775279
H      1.869519   -2.300869   -1.145798
H     -0.832130   -1.357995   -1.767912
H     -2.564712   -1.673897    3.818791
H     -2.194196   -0.417909    2.577404
H     -0.933690   -1.599432    3.079060
H     -2.442962   -4.561300    1.279049
H     -1.090289   -4.025948    2.338175
H     -2.735953   -4.202259    3.023369
H     -4.378786   -2.942317    0.783675
H     -4.271844   -1.232295    1.332399
H     -4.541225   -2.548427    2.537338
H      0.084124    0.919840   -0.321948
H      2.617616    1.667549    1.216648
H      1.382833    3.447069    2.131162
H     -0.240839    4.686679    0.754300
H     -0.378536    3.310155   -0.402434
H      1.181779    4.206553   -0.237176
H     -1.162569    1.795349    1.553361
H     -0.105255    1.630285    3.009621
H     -0.987919    3.169750    2.707720
