81

C      0.699695   -5.001309    1.947835
C      1.516835   -3.735839    1.650849
C      1.014388   -2.434719    2.374131
C      1.060924   -2.648097    3.930894
C      2.467834   -2.871125    4.504850
C     -0.410661   -2.129620    1.852339
C     -0.578311   -1.750790    0.501133
C     -1.841003   -1.432496   -0.019508
C     -1.962674   -0.965525   -1.444869
C     -2.969154   -1.465196    0.816917
O     -4.213872   -1.093220    0.287093
C     -5.395489   -0.884236    1.052611
C     -6.470164   -0.312700    0.163964
O     -7.497721   -0.962308    0.012779
C     -6.327220    1.024618   -0.569747
C     -6.177812    0.741087   -2.075796
C     -7.594478    1.872880   -0.333332
C     -5.104903    1.844174   -0.091016
C     -2.820806   -1.862740    2.156312
C     -1.563354   -2.196644    2.665595
C      1.877963   -1.194503    2.034412
C      2.979924   -1.239438    1.153363
C      3.636243   -0.070619    0.767908
C      3.229331    1.174618    1.268956
O      3.807978    2.366977    0.808632
C      4.120787    2.611736   -0.563765
C      2.842434    2.562915   -1.406852
C      3.115499    2.870709   -2.880329
C      1.835279    2.769218   -3.666521
C      1.417863    1.530960   -4.185417
C      0.189498    1.421970   -4.843914
C     -0.633729    2.543801   -4.982004
C     -0.232216    3.775387   -4.458302
C      0.995533    3.888633   -3.798427
C      2.198917    1.232686    2.218618
C      1.741313    2.558598    2.759473
C      1.510978    0.061735    2.567585
H     -0.385099   -4.825639    1.793602
H      0.877781   -5.355795    2.983599
H      1.018454   -5.814427    1.261985
H      2.574067   -3.948463    1.917010
H      1.495609   -3.585976    0.550296
H      0.627045   -1.769013    4.454124
H      0.438793   -3.517603    4.230411
H      3.155571   -2.051763    4.211243
H      2.413042   -2.889713    5.614552
H      2.882389   -3.843937    4.171211
H      0.286590   -1.678596   -0.147853
H     -1.088329   -1.287277   -2.051753
H     -2.029504    0.143363   -1.468145
H     -2.872953   -1.393682   -1.916921
H     -5.729892   -1.853699    1.481244
H     -5.194433   -0.181287    1.887676
H     -5.285624    0.106125   -2.267801
H     -7.074626    0.214074   -2.470470
H     -6.056114    1.690188   -2.646732
H     -7.516250    2.852202   -0.854622
H     -8.500833    1.356116   -0.719023
H     -7.735531    2.061482    0.751799
H     -5.085384    2.837347   -0.587529
H     -4.150562    1.335073   -0.336578
H     -5.155340    2.017510    1.005958
H     -3.676248   -1.912692    2.818568
H     -1.514023   -2.491499    3.701986
H      3.329238   -2.161500    0.717414
H      4.455275   -0.140339    0.064640
H      4.865489    1.875211   -0.932317
H      4.574584    3.622013   -0.643175
H      2.115225    3.300606   -1.000896
H      2.391144    1.549884   -1.326551
H      3.863929    2.153602   -3.283505
H      3.543083    3.892996   -2.978693
H      2.038417    0.650435   -4.067691
H     -0.127912    0.466966   -5.242989
H     -1.583827    2.457196   -5.490018
H     -0.876005    4.641368   -4.555758
H      1.286209    4.844592   -3.379816
H      1.121294    2.429885    3.671850
H      2.617643    3.185086    3.032485
H      1.138264    3.082320    1.988869
H      0.657491    0.136275    3.229502
