72

C     -3.459207    0.679318   -4.005654
C     -2.770666   -0.482227   -3.282374
C     -2.458696   -1.623278   -4.254267
Si    -1.227324    0.077777   -2.309968
C     -0.306382    1.402916   -3.349577
C      0.516661    2.381150   -2.498268
C      0.520409    0.824055   -4.501934
O     -0.327505   -1.371313   -1.931138
C      1.033119   -1.146164   -1.631320
C      1.288635   -1.251474   -0.129556
O      2.687116   -1.214950    0.112848
C      2.951067   -0.383100    1.231755
C      3.537599   -1.268075    2.354562
O      4.714749   -1.896065    1.920757
N      3.894701    0.725245    0.877713
C      4.152959    1.694442    1.817387
C      4.967101    2.784841    1.531386
C      5.547668    2.869164    0.275304
O      6.282563    3.850370   -0.015697
N      5.336127    1.881196   -0.629858
C      4.537979    0.814195   -0.345029
O      4.412923   -0.086484   -1.219904
C      1.625198    0.176195    1.632123
O      1.407913    0.799979    2.661318
C      0.598948   -0.132407    0.647275
O     -0.551991   -0.625115    1.292430
Si    -2.030371   -0.149228    0.502648
C     -3.002769   -1.744550    0.109450
C     -2.720106   -2.835159    1.146312
C     -4.511194   -1.505363   -0.020944
C     -2.870740    0.966648    1.789316
C     -4.099827    1.695979    1.235197
C     -3.201630    0.220741    3.083954
O     -1.782383    0.888536   -0.877282
H     -3.626906    1.525038   -3.305740
H     -2.854462    1.025426   -4.870583
H     -4.450427    0.351519   -4.388802
H     -3.498054   -0.875719   -2.550790
H     -1.845323   -1.272865   -5.107902
H     -1.934214   -2.452676   -3.731453
H     -3.409550   -2.028722   -4.666161
H     -1.101119    2.027135   -3.808305
H      0.820007    3.250033   -3.120723
H     -0.091739    2.769815   -1.655672
H      1.443426    1.932618   -2.096386
H     -0.095311    0.143059   -5.120932
H      0.865350    1.650971   -5.163743
H      1.411962    0.272303   -4.146709
H      1.616564   -1.949281   -2.132660
H      1.448672   -0.202801   -2.005317
H      0.913729   -2.242673    0.217691
H      2.802540   -2.058921    2.619607
H      3.731999   -0.681128    3.281375
H      5.444668   -1.230453    2.013983
H      3.728465    1.636401    2.810693
H      5.141521    3.551512    2.278125
H      5.801262    1.941492   -1.565554
H      0.455276    0.799851    0.062821
H     -2.630728   -2.135910   -0.857457
H     -3.250588   -3.771089    0.865971
H     -1.633088   -3.061803    1.186572
H     -3.059339   -2.527776    2.157302
H     -4.716951   -0.612627   -0.649504
H     -4.990508   -2.385789   -0.502885
H     -4.978573   -1.360562    0.973610
H     -2.112349    1.741859    2.036921
H     -4.423521    2.482292    1.948890
H     -3.859480    2.189421    0.269764
H     -4.951674    1.005438    1.088014
H     -2.304488   -0.316016    3.462637
H     -4.023941   -0.506716    2.927221
H     -3.522369    0.944362    3.863255
