99

C     -3.280788   -4.243189    1.245845
C     -1.822103   -4.514530    1.632212
C     -1.593814   -4.340017    3.138039
Si    -0.604486   -3.475540    0.605782
C      0.953774   -4.550435    0.540607
C      2.208902   -3.715594    0.262424
C      0.799350   -5.728970   -0.427962
O     -0.157179   -2.020970    1.457517
C     -1.224893   -1.115409    1.632767
C     -1.514847   -0.338071    0.351377
O     -2.215073    0.863070    0.632429
C     -1.729245    1.911376   -0.211066
C     -2.916191    2.399382   -1.100384
O     -4.037772    2.640820   -0.289761
C     -2.595355    3.643395   -1.911071
C     -2.194710    3.531866   -3.256450
C     -1.858256    4.672437   -3.991334
C     -1.941970    5.936814   -3.404342
C     -2.361823    6.061988   -2.078280
C     -2.691181    4.924922   -1.333269
N     -1.220618    3.021869    0.665748
C     -1.869819    3.239950    1.855181
C     -1.472734    4.243285    2.724048
C     -0.407695    5.053001    2.372384
O     -0.031542    5.946268    3.179616
N      0.214619    4.883034    1.165952
C      1.380306    5.714659    0.809248
O      2.565946    4.995648    1.095765
C      3.296433    5.613201    2.134752
C      4.364135    4.666012    2.603367
C      4.256407    4.022486    3.848500
C      5.239473    3.118759    4.262829
C      6.335026    2.846125    3.435949
C      6.445557    3.477680    2.193699
C      5.461553    4.379149    1.773667
C     -0.192829    3.880825    0.314388
O      0.374051    3.771901   -0.805424
C     -0.640310    1.254019   -1.024995
O     -0.211955    1.637800   -2.102001
C     -0.218794    0.025724   -0.375517
O      0.422015   -0.927593   -1.221283
Si    -0.567720   -2.105382   -2.049182
C      0.576321   -3.089367   -3.212003
C      1.522142   -2.190005   -4.011488
C     -0.187709   -4.050028   -4.124895
C     -1.965800   -1.232566   -3.020756
C     -1.495950   -0.561306   -4.312672
C     -3.139448   -2.179782   -3.287178
O     -1.347266   -3.227295   -0.959649
H     -3.437271   -4.482444    0.171411
H     -3.954730   -4.898167    1.840475
H     -3.567324   -3.187968    1.423426
H     -1.619208   -5.580792    1.393620
H     -2.263116   -5.025772    3.702229
H     -1.804593   -3.303327    3.469535
H     -0.545081   -4.596655    3.403569
H      1.085932   -4.977334    1.559286
H      2.351878   -2.968636    1.072917
H      3.108033   -4.366804    0.256184
H      2.149540   -3.180246   -0.697431
H      0.448409   -5.400671   -1.419263
H      0.055711   -6.451259   -0.033899
H      1.761297   -6.267863   -0.541130
H     -2.144994   -1.594969    2.013884
H     -0.914846   -0.390708    2.415092
H     -2.210849   -0.951181   -0.247257
H     -3.175722    1.575349   -1.802465
H     -4.830872    2.650021   -0.887957
H     -2.134083    2.561611   -3.733687
H     -1.539542    4.575668   -5.023196
H     -1.687634    6.818673   -3.977969
H     -2.426607    7.041986   -1.625137
H     -3.010941    5.045636   -0.304737
H     -2.717451    2.635807    2.152909
H     -1.989122    4.384050    3.667413
H      1.319531    6.721199    1.287625
H      1.365564    5.944759   -0.279232
H      2.641266    5.881152    2.997718
H      3.777139    6.541953    1.751064
H      3.410814    4.214279    4.498951
H      5.155014    2.628908    5.222012
H      7.097983    2.147132    3.758263
H      7.288400    3.261421    1.552979
H      5.558729    4.857122    0.804657
H      0.536951    0.335998    0.378381
H      1.223700   -3.708883   -2.575939
H      2.044816   -1.480803   -3.336132
H      2.289750   -2.816007   -4.515345
H      0.986751   -1.620018   -4.792777
H     -0.898271   -4.667651   -3.537638
H      0.527207   -4.735916   -4.625819
H     -0.742949   -3.505120   -4.911567
H     -2.357835   -0.426914   -2.378874
H     -2.287182    0.122594   -4.688541
H     -1.294581   -1.305208   -5.106979
H     -0.584886    0.043082   -4.130248
H     -3.952339   -1.641328   -3.819555
H     -3.554642   -2.554584   -2.327768
H     -2.828484   -3.044800   -3.905717
