169

C      4.739691   -0.001343    3.666839
C      4.343700    1.183919    4.548914
C      2.918604    1.029231    5.137108
C      2.703956    1.913807    6.371862
C      2.668753    3.406578    5.997386
C      2.654982    4.239264    7.296459
C      1.456570    3.733168    5.040423
N      1.251924    2.643949    4.058055
C      1.873606    1.349970    4.112460
O      1.561218    0.478131    3.257342
O      0.312663    3.831075    5.886945
C     -0.879448    4.290893    5.265611
C     -1.985785    4.262130    6.353560
C     -2.574117    2.852950    6.625241
O     -1.517675    1.925417    6.700726
C     -3.633640    2.417093    5.557353
C     -3.868345    0.895631    5.600648
C     -4.978064    3.183098    5.763273
C     -6.084834    2.861189    4.739619
C     -5.594366    2.996706    3.326585
C     -5.865166    2.077360    2.397934
C     -5.169434    2.110000    1.096326
C     -5.209177    1.104198    0.200789
C     -6.127632   -0.081777    0.383830
C     -4.170431    1.071952   -0.904213
C     -4.800133    1.076345   -2.308156
C     -3.699751    0.965841   -3.321695
C     -3.111785    2.042995   -3.852846
C     -1.738338    1.928439   -4.360686
C     -1.160523    2.864271   -5.119764
C      0.315439    2.795666   -5.433502
O      0.926538    3.945077   -4.903673
C      0.636077    2.654792   -6.953192
C      0.349081    3.967966   -7.707789
C     -0.061715    1.458203   -7.680990
O      0.542287    1.280336   -8.941143
C     -0.034870    0.104107   -6.917642
C     -0.649629   -1.036978   -7.762019
C     -0.957756   -2.303395   -6.941835
C     -2.031968   -2.067358   -5.910144
C     -3.456105   -1.821082   -6.316695
O     -1.740547   -2.064363   -4.723259
C      1.337999   -0.280869   -6.422290
O      2.312420   -0.321791   -7.223737
N      1.510618   -0.647957   -5.043103
C      2.633622   -1.451611   -4.560240
C      3.267065   -0.779185   -3.312453
C      4.392318   -1.634896   -2.710477
C      3.813435    0.612694   -3.665803
C      2.116502   -2.841875   -4.279552
O      2.448571   -3.785317   -5.047628
N      1.181963   -3.068030   -3.209520
C      0.466292   -4.338406   -3.016983
C      1.447182   -5.475109   -2.637232
C      0.745308   -6.758728   -2.261724
C      0.711888   -7.189673   -0.922925
C      0.056230   -8.375743   -0.577983
O      0.043114   -8.790720    0.751700
C     -0.568721   -9.140845   -1.571428
C     -0.535011   -8.722069   -2.903432
C      0.115717   -7.535454   -3.248126
C     -0.666801   -4.178631   -2.012469
O     -1.716268   -4.858135   -2.168893
N     -0.602376   -3.239948   -0.927102
C      0.375842   -3.426048    0.154084
C      0.961286   -2.072566    0.522227
C     -0.142747   -1.076493    0.906597
C     -1.542202   -1.461329    0.363726
N     -1.445822   -2.098740   -0.965428
C     -2.432569   -0.243773    0.305404
O     -2.371617    0.620093    1.226905
O     -3.345602   -0.087218   -0.745230
C     -0.679375    5.718996    4.689560
C     -1.955447    6.300020    4.041966
C      0.462710    5.701047    3.661574
O      0.062021    4.997674    2.510426
C      1.737872    5.089529    4.282762
C      2.849013    4.981394    3.215242
H      5.780361    0.141615    3.301004
H      4.066752   -0.082519    2.788901
H      4.700505   -0.944163    4.251315
H      5.087934    1.251979    5.373166
H      4.418330    2.115148    3.946550
H      2.782825   -0.024152    5.468011
H      1.745887    1.626851    6.860404
H      3.518088    1.714597    7.103841
H      3.629971    3.639020    5.503441
H      1.766311    3.997362    7.919640
H      2.658626    5.326918    7.086895
H      3.562924    4.018025    7.898517
H      0.553203    2.773152    3.295993
H     -1.177734    3.607853    4.444108
H     -2.806926    4.956923    6.119313
H     -1.547670    4.647791    7.302436
H     -3.090328    2.909331    7.614953
H     -1.729211    1.291285    7.435840
H     -3.235232    2.656274    4.548235
H     -4.281080    0.590482    6.586043
H     -2.921797    0.346437    5.417206
H     -4.565650    0.578600    4.799855
H     -4.809414    4.276692    5.712929
H     -5.373973    2.963672    6.778384
H     -6.492907    1.845464    4.933892
H     -6.924672    3.573809    4.888140
H     -4.966124    3.845048    3.082338
H     -6.512032    1.246592    2.650473
H     -4.491507    2.938270    0.921867
H     -5.903159   -0.598207    1.342734
H     -7.186312    0.259022    0.378133
H     -5.997630   -0.824891   -0.430299
H     -3.514596    1.972785   -0.849636
H     -5.484909    0.212152   -2.436810
H     -5.387603    2.007507   -2.462424
H     -3.215553   -0.002197   -3.412198
H     -3.571974    3.020604   -3.769452
H     -1.157127    1.077638   -4.026183
H     -1.731737    3.720756   -5.453551
H      0.755587    1.919670   -4.911624
H      1.904554    3.771547   -4.878986
H      1.734368    2.484629   -7.026791
H      0.675909    3.887057   -8.765989
H     -0.735279    4.207206   -7.685355
H      0.912581    4.811370   -7.258163
H     -1.140020    1.723928   -7.806166
H     -0.073067    1.652903   -9.627086
H     -0.699460    0.227889   -6.046902
H      0.050955   -1.309129   -8.583949
H     -1.589145   -0.682633   -8.240787
H     -0.032818   -2.672418   -6.451182
H     -1.300334   -3.105308   -7.628290
H     -3.581477   -1.942170   -7.412461
H     -3.751277   -0.788944   -6.032319
H     -4.118578   -2.548153   -5.803469
H      0.718394   -0.477116   -4.380743
H      3.421426   -1.521042   -5.343598
H      2.492968   -0.633275   -2.531344
H      5.164737   -1.862131   -3.476946
H      3.985406   -2.589406   -2.312717
H      4.877715   -1.095016   -1.867077
H      3.027545    1.240157   -4.138095
H      4.671939    0.537517   -4.369546
H      4.146643    1.140076   -2.744011
H      0.911438   -2.245200   -2.632524
H     -0.000866   -4.607679   -3.991296
H      2.133496   -5.149693   -1.828632
H      2.103906   -5.699097   -3.504516
H      1.200944   -6.606490   -0.149248
H     -0.409927   -9.653898    1.031884
H     -1.075973  -10.060658   -1.310740
H     -1.011621   -9.319955   -3.669101
H      0.131536   -7.218739   -4.285157
H     -0.123570   -3.881126    1.034650
H      1.198815   -4.093589   -0.155777
H      1.508920   -1.675929   -0.359328
H      1.696047   -2.177337    1.345915
H     -0.204469   -1.021565    2.014313
H      0.156158   -0.067723    0.539600
H     -2.009752   -2.181441    1.072301
H     -2.406008   -2.434250   -1.218049
H     -0.380306    6.396026    5.522103
H     -2.497987    5.518100    3.469518
H     -2.626922    6.728345    4.811944
H     -1.703765    7.131120    3.350764
H      0.687270    6.763257    3.393019
H      0.510260    5.420526    1.731947
H      2.090495    5.837391    5.021720
H      3.836537    4.779294    3.671505
H      2.627129    4.182977    2.478596
H      2.943545    5.945203    2.670585
