64

C      3.302644    0.268162   -4.620195
C      3.439587   -0.149612   -3.158928
C      2.068658   -0.434027   -2.535148
C      2.196287   -0.789028   -1.043693
C      0.807810   -0.916767   -0.355063
C      0.802797   -1.865628    0.822560
O      1.828442   -2.386668    1.237029
C     -0.523078   -2.148996    1.493041
C     -1.322647   -3.160137    0.638233
C     -2.600913   -3.695170    1.306159
C     -2.309857   -4.625219    2.493574
C     -3.597279   -5.235783    3.039742
N     -1.282010   -0.891130    1.665509
C     -2.082362   -0.676067    2.879257
C     -1.378388    0.284467    3.800811
C     -0.272515   -0.145405    4.553179
C      0.413410    0.755153    5.374627
C      0.005174    2.090465    5.445520
C     -1.088626    2.527795    4.693544
C     -1.778495    1.629965    3.872440
C     -1.072368    0.216224    0.761938
O     -1.950777    1.112695    0.638288
N      0.193315    0.352335    0.091967
C      0.952610    1.589196    0.360776
C      1.198151    2.381401   -0.894792
C      0.125375    2.751496   -1.724270
C      0.357585    3.489105   -2.889618
C      1.657411    3.875271   -3.227463
C      2.727290    3.530621   -2.396831
C      2.499664    2.794318   -1.230111
H      2.813197   -0.538296   -5.208105
H      4.309471    0.458598   -5.047841
H      2.700476    1.198685   -4.700365
H      3.948820    0.665133   -2.600781
H      4.072314   -1.061894   -3.100435
H      1.408755    0.444132   -2.670431
H      1.597572   -1.287353   -3.071434
H      2.853531   -0.070826   -0.515866
H      2.717881   -1.770565   -1.002633
H      0.127957   -1.366104   -1.111570
H     -0.304844   -2.597073    2.485626
H     -0.671358   -4.023968    0.375950
H     -1.620569   -2.674588   -0.316284
H     -3.254349   -2.855276    1.621050
H     -3.164498   -4.271261    0.538939
H     -1.632854   -5.445571    2.171706
H     -1.816754   -4.065273    3.314188
H     -4.093518   -5.852226    2.259525
H     -3.361043   -5.885448    3.909228
H     -4.292989   -4.435839    3.373049
H     -3.090940   -0.299385    2.601861
H     -2.243337   -1.632051    3.421304
H      0.058985   -1.175250    4.501325
H      1.262741    0.418426    5.956234
H      0.537540    2.786065    6.082298
H     -1.400833    3.563199    4.746562
H     -2.620052    1.984619    3.291452
H      0.393667    2.248525    1.061909
H      1.895582    1.345346    0.894482
H     -0.888030    2.463590   -1.473270
H     -0.471737    3.764650   -3.529621
H      1.834798    4.444927   -4.130646
H      3.733246    3.833852   -2.656640
H      3.339004    2.536693   -0.596232
