107

C      1.014269   -1.121799    4.923615
C     -0.302369   -0.353813    4.851646
C     -0.434954    0.494778    3.566109
O     -0.675096   -0.358284    2.443759
C      0.333791   -0.957469    1.675487
O      1.497464   -0.471448    1.661857
C      0.018405   -2.239321    0.936294
C      1.216568   -3.188883    0.799609
C     -0.813719   -2.072507   -0.375420
O     -1.955631   -1.233500   -0.140917
C     -3.187666   -1.731227    0.307004
O     -3.279603   -2.924015    0.728922
C     -4.398043   -0.849765    0.257801
C     -5.669361   -1.656669    0.146826
C     -6.213058   -2.280508    1.281727
C     -7.349032   -3.082825    1.160912
C     -7.935441   -3.248235   -0.094063
N     -7.402703   -2.634556   -1.184438
C     -6.295017   -1.849910   -1.092423
C     -0.135092   -1.674806   -1.743662
C      0.310882   -2.922992   -2.545552
C      0.952353   -0.518693   -1.744790
O      2.189269   -1.023410   -2.262144
C      3.303853   -0.821030   -1.406772
O      3.757212    0.512213   -1.540521
C      4.791615    0.770867   -0.615212
C      5.125432    2.263565   -0.672937
C      6.032436   -0.065123   -0.964553
C      5.726644   -1.583975   -1.028804
N      6.887021   -2.318175   -1.636203
C      8.128039   -2.119041   -0.859907
C      6.643001   -3.772684   -1.746448
C      4.413773   -1.803885   -1.840452
O      3.927105   -3.107336   -1.633356
C      0.536442    0.746849   -2.600270
C      0.188927    0.341341   -4.056968
O      1.653629    1.601219   -2.671536
C     -0.677462    1.530669   -1.988578
C     -0.475990    2.124196   -0.564948
C      0.672761    3.141004   -0.493492
C     -1.745269    2.782806   -0.074031
O     -2.193973    3.742929   -0.680990
C     -2.428611    2.276042    1.185409
C     -3.863080    2.839929    1.287610
C     -1.542079    2.555023    2.440671
O     -1.771171    3.839164    3.020721
C     -1.556068    3.723572    4.376624
O     -1.519853    4.703201    5.167779
O     -1.378492    2.411843    4.772834
C     -1.585331    1.546735    3.657508
C     -2.958360    0.873159    3.852556
H      1.053251   -1.898901    4.135950
H      1.095590   -1.626003    5.910309
H      1.879050   -0.435211    4.806167
H     -1.131967   -1.090695    4.915155
H     -0.359080    0.300318    5.743244
H      0.517228    1.050351    3.425897
H     -0.659337   -2.776911    1.637479
H      0.856020   -4.209028    0.542588
H      1.901136   -2.864044    0.000919
H      1.775343   -3.248481    1.757735
H     -1.207362   -3.098208   -0.556539
H     -4.301409   -0.164340   -0.606834
H     -4.450078   -0.227509    1.171104
H     -5.745208   -2.157406    2.252186
H     -7.767195   -3.573756    2.029594
H     -8.813998   -3.869535   -0.204015
H     -5.900105   -1.387798   -1.987269
H     -1.002803   -1.322105   -2.328746
H      0.626150   -2.630806   -3.568006
H     -0.531778   -3.639969   -2.659366
H      1.148367   -3.444766   -2.047632
H      1.068720   -0.158852   -0.712846
H      3.036873   -1.036934   -0.349956
H      4.474111    0.543353    0.429834
H      5.494929    2.542848   -1.682933
H      5.906249    2.519502    0.075692
H      4.214471    2.860319   -0.449032
H      6.798315    0.137951   -0.185606
H      6.434224    0.260585   -1.948069
H      5.548123   -1.938334    0.013889
H      7.984342   -2.376902    0.208260
H      8.958392   -2.731019   -1.270328
H      8.480144   -1.077977   -0.951551
H      7.572681   -4.330893   -1.979053
H      5.985337   -3.975503   -2.613428
H      6.205398   -4.182829   -0.810128
H      4.641283   -1.628267   -2.925279
H      3.529193   -3.407368   -2.489308
H     -0.767992   -0.206651   -4.138853
H      1.001522   -0.279877   -4.487263
H      0.082128    1.241784   -4.697984
H      1.412623    2.392734   -3.221895
H     -0.947290    2.367082   -2.671494
H     -1.569381    0.869327   -1.970743
H     -0.247444    1.300428    0.134535
H      0.638385    3.720797    0.445986
H      0.614372    3.853965   -1.339522
H      1.644366    2.618404   -0.490463
H     -2.508386    1.179487    1.058822
H     -4.406651    2.673631    0.324990
H     -3.842104    3.930014    1.511146
H     -4.452919    2.324189    2.057923
H     -0.485184    2.576135    2.110793
H     -3.747939    1.636449    3.981945
H     -3.191958    0.198931    3.008138
H     -2.976331    0.271817    4.781003
