107

C     -5.844066   -0.339938    0.431420
C     -4.379108    0.067009    0.621403
C     -3.666543    0.611846   -0.646409
O     -2.511211    1.414309   -0.333306
C     -1.629026    1.311991    0.760067
O     -1.998635    0.797409    1.842754
C     -0.294528    2.014334    0.668915
C      0.226564    2.008322   -0.782165
C      0.799464    1.645622    1.750300
O      0.625665    2.573381    2.832361
C      1.624143    3.486088    3.196715
O      2.824533    3.115489    3.295545
C      1.273596    4.924366    3.373972
C      0.872687    5.531285    2.055740
C     -0.296889    6.303196    1.960803
C     -0.670553    6.862850    0.739834
C      0.125745    6.645417   -0.387208
N      1.256069    5.899264   -0.289214
C      1.649838    5.349643    0.897066
C      0.884929    0.174598    2.318112
C      1.938300    0.151035    3.448920
C      1.224548   -0.883521    1.206218
O      2.631997   -0.842943    0.944445
C      2.952810   -0.517504   -0.396369
O      2.966426   -1.705448   -1.164211
C      3.169004   -1.413394   -2.539025
C      3.005514   -2.689415   -3.353625
C      4.576511   -0.819387   -2.762914
C      4.723838    0.453327   -1.906485
N      6.047856    1.123665   -2.022750
C      6.240234    1.747304   -3.345656
C      7.214176    0.288824   -1.685154
C      4.350331    0.137778   -0.435730
O      4.379408    1.298575    0.358833
C      0.774496   -2.377467    1.477320
C      1.598340   -3.085623    2.595940
O      0.969297   -3.074694    0.265621
C     -0.750032   -2.463396    1.859007
C     -1.509822   -3.728199    1.369462
C     -2.826409   -3.908589    2.139506
C     -1.734998   -3.743390   -0.142117
O     -0.993386   -4.445668   -0.822789
C     -2.848077   -2.964443   -0.851186
C     -3.382910   -3.840542   -2.012995
C     -2.312664   -1.565381   -1.298606
O     -1.345562   -1.661192   -2.328185
C     -1.442753   -0.533447   -3.107246
O     -0.611205   -0.224800   -3.993399
O     -2.528518    0.243826   -2.771867
C     -3.299839   -0.423658   -1.770641
C     -4.557121   -0.922549   -2.496483
H     -5.912291   -1.414514    0.160634
H     -6.382948   -0.220714    1.402210
H     -6.360599    0.294956   -0.327014
H     -3.811590   -0.782328    1.050672
H     -4.387592    0.888033    1.372533
H     -4.376075    1.330147   -1.100956
H     -0.554298    3.086855    0.844614
H      0.193593    0.998130   -1.228962
H      1.252102    2.416563   -0.845558
H     -0.408907    2.657949   -1.419819
H      1.784448    1.852228    1.281283
H      0.443912    4.988919    4.110189
H      2.146645    5.477598    3.786491
H     -0.916598    6.470909    2.833203
H     -1.572831    7.453413    0.664496
H     -0.165370    7.061123   -1.344760
H      2.570338    4.778675    0.937006
H     -0.069649   -0.081614    2.808772
H      2.922241    0.516598    3.088683
H      2.088086   -0.848965    3.880903
H      1.613758    0.784259    4.298391
H      0.614286   -0.596742    0.321797
H      2.243073    0.216859   -0.818605
H      2.398148   -0.694237   -2.907002
H      2.004194   -3.124788   -3.164708
H      3.091535   -2.460960   -4.440509
H      3.785236   -3.437053   -3.075335
H      5.338101   -1.571672   -2.469591
H      4.713364   -0.569335   -3.839795
H      3.951281    1.173441   -2.267931
H      5.314741    2.259163   -3.691046
H      7.038982    2.516081   -3.269941
H      6.544592    0.994747   -4.106865
H      7.338367   -0.547064   -2.398100
H      7.131490   -0.107890   -0.660229
H      8.138142    0.906013   -1.703877
H      5.068628   -0.588358   -0.006713
H      3.788914    1.975872   -0.065050
H      1.260444   -2.818950    3.617937
H      1.461003   -4.185127    2.506507
H      2.680788   -2.872372    2.493334
H      1.895620   -3.429732    0.233338
H     -0.849733   -2.409315    2.967410
H     -1.302268   -1.578908    1.516798
H     -0.888990   -4.620001    1.624193
H     -3.463647   -3.006256    2.068355
H     -3.393579   -4.786560    1.751823
H     -2.612389   -4.093898    3.218333
H     -3.691470   -2.786890   -0.152573
H     -3.507906   -4.892459   -1.668237
H     -4.388278   -3.532694   -2.351540
H     -2.678325   -3.837079   -2.873290
H     -1.771753   -1.139801   -0.450170
H     -5.182049   -1.563997   -1.859934
H     -4.281523   -1.490295   -3.413685
H     -5.177802   -0.056727   -2.816064
