57

C      1.245307    0.220831   -3.377385
C      0.895245    0.537168   -1.912086
C     -0.116139    1.695283   -1.890429
C      0.345542   -0.733350   -1.188892
C      1.408319   -1.818848   -0.985730
O      1.179812   -2.938425   -1.423327
C      2.695552   -1.598681   -0.215290
C      3.944785   -2.138006   -0.948016
C      5.170542   -2.101527   -0.027082
C      4.232106   -1.374308   -2.215833
N      4.503746    0.028767   -2.189069
O      4.244393   -1.985751   -3.318421
N     -0.430277   -0.420401    0.052521
C     -1.250293   -1.571444    0.506511
C     -2.369964   -1.864376   -0.460805
C     -3.291426   -0.860025   -0.801024
C     -4.317989   -1.124169   -1.713061
C     -4.438574   -2.394354   -2.282568
C     -3.533867   -3.402360   -1.940351
C     -2.503247   -3.140646   -1.032050
C      0.386661    0.119706    1.164422
C     -0.460964    0.831761    2.195493
C     -1.542714    1.648840    1.815279
C     -2.301636    2.313319    2.783778
C     -1.979162    2.185050    4.137018
C     -0.891994    1.397071    4.523746
C     -0.132027    0.727834    3.558960
H      0.324112    0.016068   -3.964780
H      1.778061    1.079872   -3.838728
H      1.898850   -0.668335   -3.449620
H      1.821309    0.892057   -1.415856
H      0.226183    2.523817   -2.546443
H     -1.114170    1.351852   -2.239014
H     -0.209349    2.110785   -0.868250
H     -0.381187   -1.153366   -1.920556
H      2.842233   -0.529724    0.034000
H      2.595056   -2.146698    0.746626
H      3.767099   -3.206971   -1.205747
H      5.005368   -2.759739    0.853996
H      6.069139   -2.470777   -0.568039
H      5.368142   -1.068877    0.334903
H      4.524936    0.560319   -1.291248
H      4.691575    0.543519   -3.078283
H     -0.611918   -2.467822    0.667587
H     -1.729173   -1.350695    1.484690
H     -3.210638    0.127816   -0.367347
H     -5.019487   -0.344710   -1.978393
H     -5.234198   -2.597963   -2.987407
H     -3.630903   -4.386945   -2.377816
H     -1.807162   -3.931129   -0.780831
H      0.951787   -0.701789    1.656493
H      1.119082    0.864196    0.792542
H     -1.810121    1.765428    0.774555
H     -3.139773    2.930306    2.484869
H     -2.566735    2.701501    4.884723
H     -0.636380    1.306143    5.572011
H      0.710718    0.126340    3.877073
