46

C     -1.276845    0.531722    3.102074
C     -1.647212    1.938239    2.633301
C     -1.207584    3.023795    3.624339
C      0.289555    3.204304    3.652785
O      0.953262    2.593515    4.477563
C      0.971133    4.156462    2.699673
C      2.158958    3.519423    1.960455
C      1.735468    2.330947    1.087624
C      2.892524    1.838846    0.208293
C      2.597839    0.488297   -0.469156
C      1.404158    0.529603   -1.446598
C      0.119288   -0.030249   -0.815851
C     -1.076555    0.115996   -1.767356
C     -2.391476   -0.334414   -1.117646
C     -2.403232   -1.809062   -0.856691
O     -2.244602   -2.239624    0.318416
O     -2.560177   -2.695266   -1.926081
C     -2.550885   -4.107437   -1.757447
H     -1.749599    0.316346    4.083730
H     -0.177183    0.422012    3.195464
H     -1.641105   -0.211964    2.362642
H     -2.751905    1.987727    2.521719
H     -1.205210    2.132501    1.633800
H     -1.681580    3.984836    3.329548
H     -1.579826    2.782778    4.644168
H      1.344546    5.024438    3.284039
H      0.242392    4.546322    1.955942
H      2.622532    4.298824    1.316671
H      2.924588    3.189801    2.696782
H      1.402520    1.502298    1.746512
H      0.892019    2.643897    0.435539
H      3.801245    1.713005    0.837087
H      3.122642    2.602539   -0.566694
H      3.506496    0.201964   -1.042693
H      2.454569   -0.297974    0.304742
H      1.236100    1.566776   -1.811240
H      1.650772   -0.092177   -2.335418
H     -0.105643    0.501315    0.129647
H      0.274404   -1.104968   -0.576986
H     -0.895284   -0.469575   -2.695632
H     -1.183390    1.184947   -2.054503
H     -3.231957   -0.092022   -1.802536
H     -2.560317    0.225595   -0.171499
H     -3.377262   -4.415225   -1.082219
H     -1.577656   -4.432765   -1.332520
H     -2.693025   -4.593333   -2.744391
