46

C     -0.735987   -2.135963   -0.079985
C     -2.118842   -2.399756    0.519582
C     -2.667515   -1.188898    1.295969
C     -1.974633   -0.917161    2.613244
O     -1.142410   -1.694885    3.058282
C     -2.366195    0.288907    3.425900
C     -1.224358    1.309280    3.567269
C     -0.884475    2.028626    2.245802
C      0.284586    1.361088    1.508219
C      0.488262    1.970828    0.116984
C      1.651289    1.290091   -0.614110
C      1.802771    1.837502   -2.040264
C      3.047846    1.290424   -2.755646
C      2.955885   -0.216555   -3.036395
C      4.093093   -0.662607   -3.901530
O      5.257239   -0.734464   -3.419460
O      3.852747   -0.988869   -5.240478
C      4.884844   -1.411166   -6.122795
H     -0.444848   -2.993988   -0.723906
H      0.028188   -2.032581    0.721227
H     -0.750552   -1.214446   -0.705227
H     -2.820332   -2.625177   -0.316344
H     -2.081877   -3.299410    1.176650
H     -3.741171   -1.375520    1.510587
H     -2.609951   -0.280035    0.656260
H     -2.668134   -0.055995    4.439311
H     -3.254804    0.785850    2.976999
H     -1.553521    2.077136    4.302626
H     -0.324179    0.821000    4.003515
H     -1.779825    2.070448    1.587873
H     -0.595763    3.078824    2.475516
H      1.212917    1.488973    2.107938
H      0.093129    0.275581    1.400665
H     -0.442977    1.845074   -0.479298
H      0.699903    3.058737    0.217432
H      2.591019    1.461474   -0.045113
H      1.456539    0.197371   -0.657549
H      1.892682    2.945013   -1.993876
H      0.893750    1.597238   -2.634818
H      3.955068    1.506696   -2.147469
H      3.150816    1.832454   -3.722840
H      2.996282   -0.788541   -2.084358
H      1.993837   -0.450501   -3.544805
H      4.440560   -1.656226   -7.111938
H      5.380293   -2.321799   -5.719872
H      5.630403   -0.594620   -6.254243
