26

C      2.528189   -0.499776   -1.324430
C      1.667626   -1.421006   -2.184034
C      0.258180   -0.902775   -2.293031
O     -0.190843   -0.606292   -3.433158
C     -0.609070   -0.737981   -1.096933
C     -1.425524    0.408796   -0.915900
C     -1.413183    1.548366   -1.906575
C     -2.271091    0.469221    0.211916
O     -3.119381    1.567765    0.396768
C     -3.994268    1.689626    1.512042
N     -2.261701   -0.541893    1.122998
C     -1.465576   -1.630043    0.985920
Cl    -1.508165   -2.892878    2.199684
C     -0.630878   -1.749452   -0.123092
H      2.531991    0.528014   -1.746568
H      3.571289   -0.879628   -1.302383
H      2.143041   -0.467013   -0.283087
H      1.671409   -2.445356   -1.757894
H      2.121386   -1.484756   -3.197211
H     -2.042356    1.286706   -2.782693
H     -1.799650    2.488363   -1.461006
H     -0.376438    1.760056   -2.242991
H     -4.715421    0.845079    1.523721
H     -4.557382    2.641848    1.430926
H     -3.408655    1.697278    2.455683
H     -0.025934   -2.639839   -0.230235
