37

C     -0.203411    2.155178   -2.564869
C      0.713844    2.188847   -1.340217
C      0.051438    1.638071   -0.059901
N     -0.375719    0.245804   -0.259704
C      0.536227   -0.856153   -0.180265
O      1.736693   -0.661490    0.152898
O      0.069336   -2.144624   -0.480356
C      0.843408   -3.353580   -0.468298
C      1.392931   -3.632498    0.943845
C     -0.098037   -4.499541   -0.869230
C      1.992032   -3.272447   -1.492081
C     -1.105403    2.514447    0.388994
O     -2.277872    2.225377    0.026376
C     -0.923882    3.734560    1.208125
C      0.265732    4.250494    1.537621
C      0.355730    5.493211    2.363827
H     -0.519145    1.115073   -2.790691
H     -1.100830    2.787263   -2.400512
H      0.344424    2.551634   -3.445498
H      1.044584    3.236077   -1.171408
H      1.623462    1.590568   -1.563714
H      0.809301    1.641862    0.752011
H     -1.345306    0.037135   -0.588587
H      0.567321   -3.612383    1.687104
H      2.148551   -2.877299    1.241286
H      1.881028   -4.630340    0.982979
H     -0.519071   -4.316069   -1.881282
H      0.439608   -5.472531   -0.880959
H     -0.944167   -4.571783   -0.152281
H      2.746753   -2.516067   -1.195215
H      1.594946   -2.995705   -2.492205
H      2.511262   -4.251707   -1.575124
H     -1.820545    4.244042    1.543353
H      1.189733    3.795544    1.210016
H     -0.123347    5.327136    3.351875
H     -0.151619    6.332740    1.843071
H      1.420973    5.762276    2.523071
