46

C     -1.013645    0.046918    6.958987
C     -0.513076   -1.040954    6.016212
O     -0.646407   -0.627898    4.658187
C     -1.867963   -0.610057    3.971788
O     -2.921638   -1.010061    4.541875
C     -1.914171   -0.048772    2.563139
C     -3.229140   -0.440915    1.857538
C     -1.839264    1.488454    2.681254
C     -0.745359   -0.629349    1.771721
O     -0.533693   -1.872458    1.819700
C      0.169733    0.193970    0.951016
C      1.629066    0.209294    1.319707
C     -0.301142    0.837745   -0.132330
C      0.538849    1.661894   -1.025525
C      0.010699    2.275638   -2.087937
C      0.849355    3.116442   -3.005114
C      1.759914    2.252328   -3.836033
C      1.267664    1.603900   -4.981083
C      2.105115    0.778329   -5.737684
C      3.434975    0.587664   -5.352643
C      3.929269    1.220850   -4.208964
C      3.095640    2.048122   -3.450019
H     -2.097564    0.226440    6.803147
H     -0.458324    0.990936    6.775620
H     -0.852010   -0.267690    8.011398
H      0.561352   -1.226670    6.224717
H     -1.067067   -1.988959    6.189974
H     -4.106837   -0.024854    2.398140
H     -3.336012   -1.546582    1.814326
H     -3.252341   -0.049073    0.819048
H     -1.977539    1.978249    1.695079
H     -2.640199    1.865879    3.354018
H     -0.858925    1.802731    3.101180
H      1.808186   -0.364667    2.253837
H      2.230771   -0.249507    0.506876
H      1.966325    1.252833    1.493699
H     -1.352720    0.745785   -0.376647
H      1.596946    1.776644   -0.827199
H     -1.047805    2.180632   -2.301104
H      1.432344    3.855546   -2.412800
H      0.180281    3.696460   -3.676815
H      0.236778    1.737288   -5.285146
H      1.722263    0.284350   -6.621030
H      4.081460   -0.052792   -5.938539
H      4.957864    1.068431   -3.909052
H      3.490024    2.526892   -2.562378
