52

C      2.302777    1.459767   -2.104198
C      0.807341    1.553893   -1.792684
C      0.476308    1.352943   -0.298950
N      1.159420    2.365352    0.519021
C      0.651764    3.695645    0.676882
O     -0.458172    4.013842    0.170320
O      1.410795    4.629036    1.398520
C      1.064681    6.001051    1.640726
C     -0.243847    6.096412    2.448606
C      0.940530    6.771832    0.312336
C      2.203677    6.617602    2.467064
C      0.815720   -0.054259    0.161772
O      1.923423   -0.271427    0.723517
C     -0.078153   -1.213925   -0.057912
C     -1.226340   -1.162474   -0.745592
C     -2.080053   -2.384246   -0.926410
C     -1.439042   -3.366435   -1.919515
C     -2.287120   -4.644967   -2.110958
C     -1.813122   -5.883529   -1.310401
C     -0.471712   -6.431568   -1.819682
C     -1.764979   -5.632844    0.201544
H      2.695694    0.455202   -1.842340
H      2.463029    1.623477   -3.190641
H      2.869331    2.235792   -1.548014
H      0.441623    2.553241   -2.113444
H      0.268480    0.797206   -2.402302
H     -0.616797    1.494666   -0.163426
H      2.111819    2.172021    0.903089
H     -0.173162    5.475447    3.367209
H     -1.112676    5.744872    1.855919
H     -0.443221    7.148594    2.746378
H      0.071548    6.420557   -0.280430
H      1.858539    6.633332   -0.298018
H      0.801507    7.858048    0.502463
H      3.163306    6.551155    1.910209
H      2.323715    6.069788    3.426636
H      1.999384    7.686773    2.693309
H      0.234782   -2.164690    0.358948
H     -1.582086   -0.237934   -1.177373
H     -3.070550   -2.067616   -1.319498
H     -2.246733   -2.864942    0.059886
H     -1.352039   -2.851944   -2.902115
H     -0.407700   -3.614686   -1.597115
H     -2.280677   -4.911267   -3.191015
H     -3.352054   -4.440851   -1.862030
H     -2.570083   -6.681045   -1.482564
H      0.366163   -5.742766   -1.586715
H     -0.512070   -6.592578   -2.918004
H     -0.257986   -7.409639   -1.338007
H     -1.558367   -6.584440    0.736189
H     -2.743193   -5.244934    0.556882
H     -0.965209   -4.907400    0.460774
