47

C      2.354458    3.981596    3.018857
O      1.872447    2.855154    2.296993
C      0.536487    2.726551    1.902908
O     -0.293267    3.638306    2.172908
C      0.097796    1.512805    1.174480
C     -0.903362    1.592417    0.182888
O     -1.477372    2.826985   -0.140745
C     -0.805906    3.764899   -0.975154
C     -1.348757    0.426653   -0.474021
C     -2.543873    0.481536   -1.346827
O     -2.738127    1.473301   -2.102032
O     -3.467565   -0.568827   -1.316061
C     -4.631569   -0.591266   -2.133003
C     -0.699854   -0.804641   -0.228213
O     -1.032069   -1.956929   -0.956118
C     -0.871906   -2.054417   -2.369533
C      0.294114   -0.891590    0.769096
C      0.971429   -2.217183    1.073597
C      2.432629   -2.249159    0.601399
C      2.542775   -2.119688   -0.894346
C      3.022123   -0.848183   -1.530482
O      2.246888   -3.069094   -1.603676
C      0.662934    0.260778    1.490298
O      1.592738    0.146876    2.529772
C      1.189820    0.134524    3.894349
H      1.821873    4.066301    3.989754
H      2.202700    4.907384    2.424424
H      3.438753    3.852444    3.213769
H      0.159371    4.071182   -0.521671
H     -1.444657    4.662815   -1.100933
H     -0.615078    3.315878   -1.972619
H     -4.343195   -0.570812   -3.205337
H     -5.276369    0.282505   -1.900314
H     -5.200075   -1.522150   -1.931465
H     -1.007941   -3.111653   -2.675519
H     -1.619564   -1.438715   -2.905082
H      0.145168   -1.726107   -2.664161
H      0.424034   -3.073429    0.625455
H      0.949551   -2.390270    2.170762
H      3.013014   -1.447041    1.103552
H      2.891474   -3.213033    0.910653
H      2.242532   -0.457493   -2.216768
H      3.948737   -1.047565   -2.108067
H      3.236039   -0.071114   -0.766943
H      0.510950   -0.723975    4.081068
H      0.668839    1.078744    4.155822
H      2.087349    0.030209    4.537444
