105

C      4.275821   -0.663839   -1.183074
C      5.327691   -1.342869   -0.242410
C      6.572084   -0.420211   -0.128868
O      4.733568   -1.534406    1.025007
C      5.748276   -2.717693   -0.847120
C      6.671953   -3.564975    0.048102
C      6.820071   -4.954916   -0.521808
C      5.970895   -5.975964   -0.269245
C      6.192169   -7.286536   -0.976663
C      4.822978   -5.840257    0.704259
C      2.906172   -1.346846   -1.173882
C      2.088740   -0.473986   -0.277702
C      2.773159    0.895094   -0.379672
C      2.843638    1.545353    1.014520
C      2.051601    1.760476   -1.417757
O      1.875848    1.288738   -2.532583
C      1.598088    3.190393   -1.189113
C      0.280541    3.379710   -0.396404
C     -0.892568    2.392316   -0.663774
O     -1.714518    2.404944    0.498982
C     -2.003486    1.108581    0.991276
C     -0.982176    0.695260    2.017832
C     -0.436926   -0.597624    2.004227
C      0.521728   -0.970841    2.952791
C      0.944210   -0.055234    3.935787
O      1.937814   -0.363638    4.877698
C      2.696523   -1.570364    4.881466
C      0.359280    1.215172    3.977801
C     -0.600724    1.587063    3.032101
C     -1.800418    2.750893   -1.889080
C     -1.042048    2.659499   -3.224652
C     -2.453227    4.144009   -1.753175
C     -3.869350    3.911810   -2.180831
C     -4.072654    2.449913   -1.813272
C     -5.186199    1.702900   -2.615464
C     -4.832328    1.633550   -4.118867
O     -5.256795    0.378874   -2.141902
C     -6.557864    2.420431   -2.411798
C     -7.785481    1.647538   -2.932182
C     -8.168975    0.517218   -2.005029
C     -8.266589   -0.781717   -2.369896
C     -8.641586   -1.820269   -1.344850
C     -7.993013   -1.245436   -3.777667
O     -2.835830    1.784758   -1.950241
O      4.098973    0.696817   -0.829938
H      4.671030   -0.689988   -2.223675
H      7.012598   -0.229353   -1.131222
H      7.353180   -0.870845    0.518185
H      6.300233    0.552549    0.334132
H      5.443375   -1.591022    1.714026
H      6.260873   -2.551149   -1.819337
H      4.850600   -3.320320   -1.077647
H      7.680754   -3.102171    0.082983
H      6.297956   -3.619699    1.088548
H      7.639525   -5.112483   -1.220313
H      7.200841   -7.678803   -0.733343
H      5.444801   -8.048999   -0.675815
H      6.115172   -7.135111   -2.072334
H      5.212515   -5.643785    1.725040
H      4.151000   -5.012394    0.399415
H      4.212703   -6.766216    0.745350
H      2.477829   -1.336043   -2.200334
H      2.905033   -2.391761   -0.798538
H      2.152205   -0.884857    0.752278
H      1.020769   -0.462443   -0.588731
H      3.436875    0.906560    1.703416
H      3.348887    2.532344    0.977520
H      1.830859    1.652557    1.447711
H      1.510710    3.700524   -2.168805
H      2.406350    3.753731   -0.676959
H      0.539360    3.321718    0.680522
H     -0.063070    4.424720   -0.546181
H     -0.448252    1.389023   -0.845930
H     -2.991135    1.149454    1.496120
H     -2.111785    0.349950    0.181489
H     -0.740069   -1.312885    1.249218
H      0.938440   -1.968340    2.904727
H      3.249252   -1.681746    3.923143
H      3.430987   -1.533219    5.712185
H      2.028932   -2.442847    5.040983
H      0.662044    1.923829    4.738319
H     -1.033980    2.577044    3.080624
H     -1.756818    2.747704   -4.070771
H     -0.309821    3.480517   -3.338473
H     -0.535499    1.676717   -3.318431
H     -1.967591    4.927212   -2.377608
H     -2.458118    4.497761   -0.698816
H     -3.954041    4.088343   -3.273166
H     -4.576014    4.578325   -1.638227
H     -4.347029    2.416739   -0.731806
H     -4.961333    2.615177   -4.620631
H     -5.483225    0.902436   -4.641078
H     -3.785218    1.290150   -4.266665
H     -5.470277    0.409039   -1.171495
H     -6.708075    2.643215   -1.331919
H     -6.532345    3.404026   -2.929517
H     -8.645787    2.349660   -2.959542
H     -7.625604    1.322509   -3.977244
H     -8.383093    0.792040   -0.974828
H     -7.807486   -2.544131   -1.230697
H     -9.549467   -2.364738   -1.681256
H     -8.854503   -1.374329   -0.349445
H     -8.128169   -2.344899   -3.866312
H     -6.945181   -1.007775   -4.057208
H     -8.695774   -0.753005   -4.483633
