94

C     -0.012103   -1.460170   -4.121837
O     -0.683645   -2.048402   -5.236933
C     -0.845348   -1.094532   -6.217721
O     -1.495883   -1.284166   -7.280481
O     -0.154574    0.062611   -5.940230
C      0.690803   -0.205880   -4.823868
C      2.048804   -0.691179   -5.422300
C      3.149099   -0.706013   -4.405134
O      4.280937   -1.137940   -4.752029
C      2.919585   -0.207231   -3.021821
C      3.921814   -0.632778   -1.963586
C      1.788925    0.526821   -2.734723
C      1.297961    0.568887   -1.288301
O      0.605952    1.764860   -1.007206
Si     0.912119    2.383450    0.596240
C     -0.385299    3.679578    1.008166
C     -0.976028    4.306325   -0.252004
C      2.623484    3.164878    0.607629
C      2.755793    4.216742   -0.484026
C      0.843654    1.003887    1.884989
C      0.932113    1.547867    3.305171
C      0.477829   -0.691258   -0.997079
O      1.072946   -1.626975   -0.482933
C     -0.979720   -0.919501   -1.417866
C     -1.847636    0.354552   -1.109281
C     -1.642509   -2.055701   -0.516474
O     -1.574406   -1.666164    0.846495
Si    -1.833895   -2.967346    1.985783
C     -1.277105   -4.670854    1.365385
C      0.239106   -4.775028    1.260962
C     -3.665050   -2.970852    2.464148
C     -4.208203   -4.377746    2.690308
C     -0.842372   -2.530582    3.526330
C     -1.108514   -3.505498    4.669128
C     -3.129401   -2.348884   -0.939831
C     -3.389405   -2.476378   -2.464978
C     -2.529035   -1.535892   -3.272318
O     -3.014613   -0.816409   -4.130746
C     -1.070592   -1.470128   -2.911618
C      0.961721    1.050749   -3.945482
C     -0.387712    1.774741   -3.721858
C      1.831290    2.124712   -4.679682
H      0.810756   -2.151607   -3.815408
H      1.950596   -1.707117   -5.857430
H      2.347688   -0.029441   -6.262523
H      3.466766   -1.366429   -1.266349
H      4.819528   -1.111198   -2.399840
H      4.281438    0.253136   -1.400750
H      2.193712    0.516307   -0.638081
H      0.080764    4.465713    1.635173
H     -1.201926    3.201653    1.583905
H     -1.561856    3.550057   -0.813618
H     -0.177511    4.713866   -0.907168
H     -1.656914    5.132203    0.031135
H      2.802784    3.633077    1.597740
H      3.379227    2.364700    0.446230
H      2.073391    5.071464   -0.277074
H      2.518327    3.780110   -1.482439
H      3.794418    4.605432   -0.515448
H     -0.109687    0.446403    1.766631
H      1.690206    0.304925    1.712032
H      0.030055    2.153646    3.547235
H      0.997435    0.701748    4.022987
H      1.836873    2.180480    3.426042
H     -1.852372    0.572126   -0.025005
H     -2.899887    0.246806   -1.425929
H     -1.536393    1.287864   -1.554351
H     -1.051728   -2.982859   -0.664990
H     -1.743330   -4.894413    0.382296
H     -1.629110   -5.441654    2.080389
H      0.693776   -4.799042    2.273592
H      0.506182   -5.714848    0.741751
H      0.665999   -3.927245    0.694084
H     -4.262078   -2.478943    1.671380
H     -3.787810   -2.374652    3.391357
H     -4.165862   -4.958575    1.746543
H     -3.623648   -4.901651    3.475877
H     -5.269491   -4.325081    3.022789
H      0.237964   -2.536387    3.277002
H     -1.117576   -1.502926    3.848619
H     -2.159319   -3.423820    5.012141
H     -0.442075   -3.267631    5.521884
H     -0.904962   -4.548215    4.350404
H     -3.456704   -3.300380   -0.474421
H     -3.796553   -1.564467   -0.525910
H     -3.158315   -3.516488   -2.781816
H     -4.467283   -2.295496   -2.670896
H     -0.901736   -2.559061   -2.741963
H     -1.215870    1.070105   -3.575311
H     -0.697955    2.301575   -4.650149
H     -0.335260    2.581666   -2.968688
H      1.408891    2.363751   -5.681748
H      2.890063    1.828858   -4.823306
H      1.857402    3.065311   -4.086490
