32

C     -3.088811    3.516143    2.662680
O     -2.759674    2.143682    2.837629
C     -2.911955    1.197891    1.819692
O     -3.371844    1.533061    0.693816
C     -2.510448   -0.224620    2.068236
C     -0.982323   -0.357328    2.255459
C     -0.605425   -1.787122    2.674493
C     -0.081842   -2.402712    1.434118
O      0.194141   -3.588741    1.347218
C      0.079850   -1.454397    0.308927
C     -0.210766   -0.077702    0.931505
C      1.085448    0.714830    1.214013
C      1.768856    1.131356   -0.053052
O      1.287063    2.069987   -0.744732
O      2.923313    0.460695   -0.467000
C      3.606875    0.785044   -1.671252
H     -2.472190    3.953657    1.849071
H     -2.881614    4.063623    3.604899
H     -4.166424    3.620305    2.414976
H     -2.851347   -0.871468    1.229428
H     -3.029742   -0.564424    2.990313
H     -0.674705    0.342486    3.065831
H      0.200181   -1.769843    3.440042
H     -1.470643   -2.366879    3.063847
H      1.102047   -1.532456   -0.118521
H     -0.667838   -1.691244   -0.478431
H     -0.830236    0.519019    0.225304
H      1.780844    0.105180    1.831717
H      0.841285    1.634405    1.789435
H      2.932966    0.638369   -2.541802
H      4.486903    0.118841   -1.781603
H      3.954892    1.839232   -1.638938
