33

C      2.717791    0.125998    0.269466
C      1.708417    0.672502   -0.760180
C      1.064930    1.922761   -0.183993
O      1.550291    3.034757   -0.530875
C     -0.083973    1.908392    0.771602
C     -0.528879    0.726239    1.401061
C     -1.609302    0.754752    2.288235
C     -2.260547    1.957235    2.563985
C     -1.832226    3.136075    1.953712
C     -0.752867    3.114655    1.065713
N      0.674585   -0.320351   -1.179801
C      1.202134   -1.662732   -1.508893
C      2.030767   -1.644669   -2.814204
O      1.759143   -0.517959   -3.631069
C      0.369425   -0.276914   -3.684605
C     -0.161103    0.174058   -2.305900
H      3.425791   -0.578377   -0.214756
H      3.331651    0.953656    0.686387
H      2.209436   -0.389822    1.108583
H      2.302669    0.979285   -1.650474
H     -0.052550   -0.224796    1.224905
H     -1.941043   -0.158960    2.764493
H     -3.096466    1.975585    3.251296
H     -2.337665    4.069013    2.167699
H     -0.447229    4.045122    0.603878
H      1.781084   -2.100540   -0.670435
H      0.340549   -2.353382   -1.647700
H      1.856962   -2.579638   -3.391047
H      3.108649   -1.621038   -2.549237
H      0.173872    0.520842   -4.432055
H     -0.173643   -1.185697   -4.033830
H     -1.194140   -0.214458   -2.176951
H     -0.250444    1.281857   -2.298149
