33

C      0.734215    1.338001    0.242639
C     -0.107214    0.133526    0.704320
C     -0.652574   -0.650609   -0.479396
O     -1.896167   -0.846550   -0.569281
C      0.230142   -1.223432   -1.531046
C     -0.283472   -1.447892   -2.822762
C      0.524961   -1.992758   -3.824864
C      1.851955   -2.327315   -3.549685
C      2.371979   -2.121137   -2.270620
C      1.568341   -1.576325   -1.264234
N     -1.198864    0.531816    1.636062
C     -2.108968    1.602768    1.159911
C     -1.702329    3.018573    1.644144
O     -0.781618    3.025277    2.719121
C     -1.118322    2.024509    3.648814
C     -0.781116    0.654857    3.055153
H      0.160155    1.982783   -0.454717
H      1.649916    0.998943   -0.282883
H      1.059575    1.938430    1.116808
H      0.571447   -0.565547    1.238944
H     -1.308267   -1.191114   -3.061250
H      0.121574   -2.155235   -4.816052
H      2.476186   -2.749752   -4.326450
H      3.398809   -2.388342   -2.056484
H      1.997296   -1.448146   -0.280553
H     -2.198417    1.602965    0.052471
H     -3.126457    1.379307    1.547513
H     -1.239655    3.567940    0.797655
H     -2.610729    3.592406    1.931963
H     -2.193738    2.079480    3.939531
H     -0.523230    2.178810    4.573760
H      0.313374    0.494179    3.176311
H     -1.294179   -0.131310    3.648264
