22

O     -1.345489    2.308551   -3.139831
C     -1.495888    1.254437   -2.468334
C     -2.666903    0.355427   -2.571742
C     -2.321232   -0.763469   -1.578566
C     -1.001698   -0.361975   -0.966503
C     -0.303327   -1.153484    0.088006
C     -0.741060   -2.457505    0.397118
C     -0.098955   -3.210524    1.384669
C      0.984119   -2.674604    2.081902
C      1.425703   -1.382443    1.795610
C      0.788632   -0.623597    0.808879
C     -0.549499    0.770473   -1.494151
H     -2.763891   -0.038645   -3.606254
H     -3.591530    0.891135   -2.266942
H     -3.101322   -0.845795   -0.791130
H     -2.216058   -1.731139   -2.115114
H     -1.576938   -2.904087   -0.124280
H     -0.442909   -4.211914    1.609573
H      1.478916   -3.259233    2.846686
H      2.261442   -0.965053    2.342466
H      1.148993    0.379093    0.630558
H      0.381977    1.263485   -1.255050
