29

C      0.985639   -1.411378   -0.867232
C      0.580691   -0.250418    0.052588
C     -0.734594   -0.584047    0.784066
C     -1.133787    0.511454    1.794343
C     -0.004117    0.711333    2.825737
C      1.334639    1.084810    2.158703
C      2.446317    1.175345    3.214106
C      1.659757    0.092722    1.060004
O      2.795904   -0.343815    0.930035
O     -1.362036    1.726002    1.107210
C     -2.725010    1.979406    1.219284
C     -3.218294    1.121922    2.341461
O     -2.296011    0.088955    2.476933
H      0.169550   -1.630314   -1.588553
H      1.195018   -2.327398   -0.273685
H      1.893153   -1.141609   -1.448550
H      0.414396    0.644710   -0.586308
H     -0.626740   -1.552882    1.322087
H     -1.551196   -0.703620    0.038154
H     -0.299622    1.516131    3.534620
H      0.120833   -0.225597    3.414184
H      1.230334    2.088485    1.690899
H      2.614112    0.186468    3.692851
H      3.394066    1.515591    2.744752
H      2.169474    1.911277    3.998963
H     -2.896456    3.055726    1.433831
H     -3.228286    1.704921    0.266490
H     -4.224080    0.708142    2.115362
H     -3.259322    1.702957    3.288636
