59

C     -0.260585   -3.711460   -0.189640
C     -0.052598   -2.560766   -1.192461
C      1.234883   -2.825896   -1.987518
C     -1.239510   -2.486247   -2.173747
O      0.117405   -1.308949   -0.507120
C     -0.849745   -0.657663    0.276788
O     -1.941919   -1.236075    0.532180
N     -0.607126    0.674353    0.802196
C     -1.593763    1.154220    1.794777
C     -1.265278    2.524618    2.378936
C     -0.894615    3.494458    1.272469
C      0.296554    2.981295    0.524578
O      1.063629    3.794567    0.025856
C      0.586354    1.485481    0.402540
C      1.795949    1.185153    1.343458
C      2.138855   -0.274513    1.518930
C      1.489344   -1.037599    2.505447
C      1.857895   -2.367580    2.726256
C      2.882315   -2.944627    1.971737
C      3.536007   -2.193729    0.991973
C      3.166506   -0.864787    0.763220
C      0.916977    1.270441   -1.067189
O      2.114751    1.173741   -1.448471
O     -0.128157    1.319121   -2.003845
C     -0.006167    1.687839   -3.386368
C     -1.425614    1.727981   -3.971589
C      0.623479    3.088377   -3.508780
C      0.826114    0.656960   -4.172532
H     -1.213220   -3.601611    0.366445
H      0.569199   -3.737863    0.544570
H     -0.290395   -4.688075   -0.719410
H      2.101783   -2.918800   -1.301921
H      1.154642   -3.764737   -2.577060
H      1.440710   -1.986359   -2.682837
H     -1.157514   -1.582224   -2.810152
H     -1.264295   -3.382897   -2.829996
H     -2.208333   -2.440702   -1.636047
H     -2.593306    1.212710    1.309665
H     -1.662211    0.426788    2.633106
H     -2.152143    2.911968    2.925725
H     -0.433565    2.439980    3.110643
H     -0.658832    4.481446    1.727070
H     -1.744672    3.625038    0.568316
H      2.696415    1.734778    0.988712
H      1.591491    1.604340    2.351933
H      0.706381   -0.598471    3.110759
H      1.352255   -2.949677    3.485674
H      3.167959   -3.974020    2.144884
H      4.331242   -2.641133    0.409924
H      3.699725   -0.292798    0.015546
H     -1.907539    0.730640   -3.882145
H     -2.049881    2.461813   -3.417507
H     -1.406979    2.017621   -5.044689
H      1.673865    3.085802   -3.150554
H      0.050562    3.820885   -2.900545
H      0.623286    3.427929   -4.567091
H      1.876989    0.623512   -3.822858
H      0.386743   -0.354775   -4.070942
H      0.843199    0.917312   -5.252936
