116

C      7.084336    6.747284   -2.854959
O      6.207516    5.616745   -2.860387
C      4.812779    5.697164   -2.701267
C      4.138476    6.922505   -2.522439
C      2.743709    6.958469   -2.448292
C      1.992420    5.770834   -2.532801
C      0.488732    5.827189   -2.426843
O     -0.090589    4.845568   -3.265984
C     -1.493535    5.020340   -3.285976
C     -2.100120    4.922085   -1.869837
C     -3.577619    5.351125   -1.915477
C     -1.256451    5.797306   -0.892075
C     -1.604343    5.584153    0.621331
C     -1.570377    6.939843    1.351951
C     -0.657730    4.597922    1.375047
C     -0.753669    3.110929    0.945269
C      0.468307    2.348989    1.486037
C     -2.081256    2.483351    1.448163
C     -2.340182    1.053011    0.963970
C     -2.564066    0.983433   -0.526983
O     -3.588457    1.459919   -0.995130
C     -1.569673    0.266449   -1.428123
C     -1.800740    0.578662   -2.919324
C     -1.451537   -1.273209   -1.146674
O     -0.499468   -1.448799   -0.107298
Si     1.051387   -2.011970   -0.672430
C      1.840341   -0.712356   -1.770047
C      0.873748   -3.601654   -1.658993
C      2.144845   -2.328870    0.854543
C      2.210462   -1.050887    1.708951
C      1.523927   -3.465850    1.687432
C      3.563845   -2.721971    0.407828
C     -2.796927   -1.974693   -0.731838
C     -3.780333   -2.088334   -1.911633
C     -2.557984   -3.365796   -0.104653
O     -3.774163   -3.865892    0.403880
Si    -3.531379   -5.268968    1.409847
C     -4.486855   -4.955734    2.985467
C     -1.743377   -5.563875    1.913046
C     -4.222697   -6.799609    0.515336
C     -4.346594   -7.972934    1.505633
C     -5.607440   -6.462722   -0.059163
C     -3.273410   -7.194598   -0.632722
O      0.131415    5.582692   -1.082079
C      2.668313    4.544287   -2.659163
C      4.066227    4.514214   -2.751631
H      6.724058    7.521977   -3.569227
H      7.152674    7.161352   -1.837395
H      8.084165    6.419684   -3.177626
H      4.678295    7.855918   -2.460512
H      2.245046    7.913297   -2.307324
H      0.167264    6.850622   -2.753106
H     -1.753207    5.995074   -3.758563
H     -1.940112    4.225083   -3.922591
H     -2.075225    3.861708   -1.564030
H     -4.113960    4.786708   -2.706135
H     -4.092030    5.135745   -0.956944
H     -3.666010    6.436546   -2.131751
H     -1.486837    6.858221   -1.153399
H     -2.643893    5.228572    0.724539
H     -1.834195    6.813529    2.425923
H     -0.558689    7.393616    1.281441
H     -2.312534    7.639357    0.905260
H     -0.875478    4.648895    2.465720
H      0.388799    4.961147    1.265456
H     -0.691499    3.044275   -0.155805
H      0.498222    1.324634    1.074675
H      0.446971    2.306670    2.593815
H      1.406215    2.850337    1.161122
H     -2.085827    2.480876    2.557964
H     -2.947380    3.101027    1.135007
H     -3.257801    0.674358    1.467187
H     -1.519697    0.384496    1.283907
H     -0.578904    0.722632   -1.202921
H     -1.004678    0.111680   -3.539103
H     -2.781140    0.212897   -3.277878
H     -1.757464    1.675110   -3.086480
H     -1.142908   -1.767751   -2.095789
H      1.944662    0.241906   -1.216171
H      2.839557   -1.051096   -2.101889
H      1.205567   -0.548985   -2.664016
H      1.878357   -4.019509   -1.875599
H      0.289123   -4.343936   -1.069970
H      0.355206   -3.411041   -2.621759
H      2.857098   -1.217619    2.597517
H      2.635412   -0.204165    1.123861
H      1.193823   -0.767258    2.066177
H      2.141913   -3.666012    2.587405
H      1.458481   -4.404107    1.094157
H      0.499721   -3.186045    2.023097
H      4.198056   -2.939219    1.296895
H      4.045921   -1.900118   -0.161183
H      3.543858   -3.636462   -0.225595
H     -3.294992   -1.383385    0.061337
H     -4.197754   -1.090821   -2.159738
H     -3.278409   -2.518941   -2.808404
H     -4.648936   -2.733004   -1.650863
H     -1.824982   -3.236074    0.717270
H     -2.141029   -4.056248   -0.870799
H     -4.114294   -4.025893    3.459004
H     -4.342218   -5.805754    3.684945
H     -5.562954   -4.842799    2.750459
H     -1.087708   -5.592779    1.019693
H     -1.663268   -6.529928    2.450853
H     -1.412950   -4.753155    2.592441
H     -3.353702   -8.217211    1.947375
H     -4.727070   -8.879829    0.986206
H     -5.053718   -7.720598    2.327113
H     -6.313359   -6.172883    0.748849
H     -6.037321   -7.341951   -0.586123
H     -5.547552   -5.626816   -0.787188
H     -3.160643   -6.358303   -1.361974
H     -3.674494   -8.080860   -1.178047
H     -2.268529   -7.456885   -0.235628
H      2.116134    3.609473   -2.686622
H      4.569449    3.565296   -2.873301
