26

C      0.840667    0.803111    0.857249
C      0.313458    2.219719    0.521569
C     -0.615875    2.630808    1.676759
C     -0.844933    1.357616    2.389693
O     -1.659634    1.219277    3.340414
N     -0.038962    0.306104    1.897558
C     -0.087847   -1.093137    2.311032
C     -0.114676   -1.988604    1.097532
C      0.344013   -1.529346   -0.161886
C      0.331030   -2.408460   -1.260232
C     -0.117616   -3.722766   -1.109626
C     -0.553942   -4.176417    0.135651
C     -0.548150   -3.316621    1.235769
C      0.828717   -0.134207   -0.321131
O      1.293729    0.256460   -1.426737
H      1.874812    0.869939    1.260406
H      1.153880    2.939281    0.413962
H     -0.272594    2.212500   -0.424612
H     -0.110204    3.353557    2.352250
H     -1.572382    3.051229    1.298539
H      0.814213   -1.325884    2.915352
H     -0.989755   -1.275490    2.934883
H      0.669060   -2.081305   -2.235514
H     -0.123147   -4.392388   -1.960022
H     -0.894714   -5.197420    0.249516
H     -0.882567   -3.685796    2.197583
