26

C     -0.520610    0.850519    1.390359
C     -0.090416    1.956460    2.384966
C      0.088054    3.244933    1.563321
C      0.104767    2.752774    0.170748
O      0.358015    3.476004   -0.829026
N     -0.207726    1.377687    0.076127
C     -0.182363    0.561861   -1.134250
C      0.555577   -0.727193   -0.871666
C      0.717689   -1.223072    0.445631
C      1.384999   -2.445942    0.642253
C      1.872304   -3.169760   -0.448613
C      1.697132   -2.686188   -1.745674
C      1.037714   -1.473939   -1.958198
C      0.192821   -0.457891    1.605687
O      0.283107   -0.928226    2.772673
H     -1.617814    0.684249    1.460757
H      0.879577    1.702154    2.867890
H     -0.856979    2.095231    3.177925
H     -0.775072    3.929079    1.709319
H      1.041336    3.757798    1.814184
H      0.312237    1.118723   -1.959573
H     -1.224709    0.329198   -1.438344
H      1.529118   -2.844261    1.638767
H      2.383609   -4.110147   -0.287881
H      2.070550   -3.253285   -2.588584
H      0.902687   -1.115607   -2.971399
