62

O      3.106705   -2.561948   -4.824507
C      2.694435   -2.007345   -3.817198
C      1.425808   -2.476711   -3.165036
C      0.718880   -1.297020   -2.469235
C     -0.423606   -1.816687   -1.577455
C     -1.258293   -0.671009   -0.944154
C     -2.377774   -0.147677   -1.871532
C     -3.594449   -1.027435   -1.791781
C     -4.372329   -1.229812   -2.864299
C     -4.004659   -1.518447   -0.434633
C     -2.754318   -2.020157    0.307193
C     -3.089984   -2.480179    1.743992
C     -3.297153   -1.331654    2.741897
O     -2.066058   -0.676433    2.965697
C     -2.277291    0.523223    3.675660
C     -0.955805    1.216716    3.841578
C     -0.255446    1.143775    5.058256
C      0.995013    1.757706    5.188086
C      1.557237    2.438738    4.104221
C      0.875116    2.497631    2.884730
C     -0.375041    1.886262    2.751057
O     -1.744399   -1.019895    0.346420
O      1.638154   -0.579132   -1.660739
C      2.602566    0.078629   -2.465199
C      3.415852    0.995079   -1.598276
C      4.243976    2.006038   -2.037838
O      4.805795    2.538058   -0.981014
C      4.349113    1.889639    0.068874
C      4.765104    2.184597    1.469548
Cl     6.063572    1.068468    1.956154
N      3.483798    0.905842   -0.254427
C      3.521780   -0.948200   -3.148026
H      1.688094   -3.262047   -2.422642
H      0.747723   -2.920173   -3.927344
H      0.272010   -0.635605   -3.248005
H      0.022990   -2.430820   -0.763984
H     -1.086904   -2.481816   -2.174156
H     -0.577740    0.192070   -0.777243
H     -2.005938   -0.067817   -2.916096
H     -2.669750    0.872405   -1.541514
H     -5.288664   -1.808945   -2.789530
H     -4.103972   -0.817554   -3.831787
H     -4.744570   -2.346902   -0.514730
H     -4.474807   -0.672278    0.109060
H     -2.383194   -2.928675   -0.220054
H     -2.258817   -3.118330    2.117053
H     -4.000462   -3.118225    1.727095
H     -4.077835   -0.641416    2.352237
H     -3.661285   -1.765329    3.700042
H     -2.725735    0.313506    4.673838
H     -2.962338    1.202083    3.117253
H     -0.674880    0.609508    5.902776
H      1.531671    1.704233    6.127477
H      2.524815    2.910908    4.209890
H      1.314678    3.014299    2.040922
H     -0.889421    1.928683    1.798141
H      2.105753    0.710358   -3.238775
H      4.416176    2.316370   -3.060753
H      3.899242    2.058466    2.153296
H      5.128664    3.230375    1.543468
H      4.166401   -0.437210   -3.896761
H      4.173811   -1.440677   -2.393983
