62

O      2.164960   -2.319270   -1.737734
C      1.051530   -2.820674   -1.769106
C      0.242956   -2.980706   -0.529869
C     -1.221507   -2.567464   -0.797311
C     -1.447835   -1.033049   -0.727435
C     -1.786492   -0.502590    0.682315
C     -3.279120   -0.730026    1.032366
C     -3.534163   -0.225507    2.424394
C     -4.732664    0.254780    2.780770
C     -2.411218   -0.312035    3.417384
C     -1.371000   -1.332577    2.906332
C     -0.222544   -1.538949    3.921936
C      0.945019   -0.557501    3.762587
O      0.499858    0.768791    3.961534
C      1.417909    1.690441    3.407193
C      1.027027    2.016011    1.990338
C      1.701020    1.423585    0.909181
C      1.303941    1.697012   -0.402968
C      0.233065    2.561674   -0.645481
C     -0.445815    3.150332    0.424643
C     -0.057723    2.872311    1.739173
O     -0.839140   -0.994666    1.630344
O     -1.754819   -3.137762   -1.995018
C     -0.979039   -2.927499   -3.175888
C     -1.139105   -1.531474   -3.725957
C     -2.312651   -0.989568   -4.200222
O     -2.054487    0.236532   -4.578872
C     -0.778032    0.453875   -4.354177
C     -0.106863    1.753680   -4.672298
Cl     1.622184    1.738808   -4.233061
N     -0.152602   -0.616982   -3.819277
C      0.489079   -3.367383   -3.032613
H      0.689610   -2.391320    0.297507
H      0.270444   -4.051514   -0.233820
H     -1.808073   -3.022015    0.029227
H     -2.279290   -0.746677   -1.405422
H     -0.540736   -0.507868   -1.095613
H     -1.650940    0.598954    0.637426
H     -3.910769   -0.176557    0.302934
H     -3.546270   -1.806174    0.980249
H     -4.912897    0.600047    3.793698
H     -5.549527    0.299596    2.066252
H     -1.960779    0.695354    3.534042
H     -2.805495   -0.649673    4.401921
H     -1.884662   -2.317972    2.818593
H      0.184469   -2.564972    3.783217
H     -0.609267   -1.488732    4.963693
H      1.398590   -0.713108    2.756946
H      1.716184   -0.800696    4.526386
H      1.373970    2.622330    4.009427
H      2.477928    1.345713    3.469309
H      2.529605    0.747317    1.080526
H      1.823528    1.233304   -1.230843
H     -0.075034    2.771101   -1.660522
H     -1.280806    3.812593    0.235828
H     -0.602768    3.321465    2.560302
H     -1.410225   -3.594760   -3.953226
H     -3.280304   -1.468631   -4.254890
H     -0.194483    1.952275   -5.760033
H     -0.612600    2.571898   -4.119864
H      1.088220   -3.042330   -3.911448
H      0.535140   -4.476547   -2.982054
