85

C      2.810101   -0.476615    0.450784
C      2.632640   -1.880847    1.050210
C      3.535993   -2.030084    2.286690
C      3.018873   -2.934604    0.001750
Si     0.810921   -2.126967    1.533827
C      0.322648   -0.913406    2.874526
C      0.553779   -3.870921    2.178906
O     -0.168997   -1.824826    0.131221
C     -1.450736   -2.387861    0.290601
C     -2.457048   -1.695096   -0.643728
N     -3.737880   -2.386793   -0.517544
N     -4.656018   -2.180660   -1.311892
N     -5.572332   -1.974014   -2.105212
C     -2.641055   -0.170543   -0.336636
O     -2.546247    0.050525    1.061888
C     -3.806877    0.308304    1.636620
C     -3.619143    0.474891    3.114501
C     -3.682921   -0.640263    3.965939
C     -3.435266   -0.495358    5.334205
C     -3.108241    0.758693    5.857677
C     -3.021217    1.868397    5.012925
C     -3.268580    1.727719    3.643840
C     -1.598667    0.744652   -1.029341
O     -1.933064    2.098308   -0.754524
C     -1.031470    2.695628    0.158823
C      0.264064    3.070350   -0.515421
C      1.487205    2.854829    0.139107
C      2.690682    3.193883   -0.486261
C      2.680251    3.769438   -1.759706
C      1.465487    4.014472   -2.405444
C      0.260399    3.673990   -1.784210
C     -1.608519    0.579299   -2.531710
O     -2.653164    0.713486   -3.150688
C     -0.349127    0.238575   -3.275453
O      0.021264   -1.086473   -2.964392
C      0.976496   -1.551538   -3.894899
C      1.436040   -2.929408   -3.504415
C      0.520404   -3.876401   -3.010356
C      0.953437   -5.156995   -2.655127
C      2.296115   -5.511019   -2.812032
C      3.207239   -4.586626   -3.328772
C      2.779687   -3.302631   -3.681509
H      2.586515    0.299352    1.211244
H      3.856740   -0.326757    0.108689
H      2.135622   -0.326905   -0.420236
H      4.602109   -1.886754    2.007400
H      3.433651   -3.041155    2.733694
H      3.279799   -1.274170    3.058947
H      2.935204   -3.960960    0.417954
H      4.066703   -2.785884   -0.337758
H      2.352501   -2.859397   -0.880518
H     -0.743147   -1.059470    3.140133
H      0.943235   -1.081327    3.776793
H      0.466126    0.123853    2.510021
H      0.729180   -4.600621    1.361516
H      1.259702   -4.070199    3.010592
H     -0.482850   -3.983303    2.556851
H     -1.842217   -2.314867    1.332917
H     -1.401499   -3.465399    0.017670
H     -2.103818   -1.841672   -1.685323
H     -3.628322    0.147178   -0.754849
H     -4.244460    1.241332    1.213287
H     -4.510849   -0.532512    1.442339
H     -3.914716   -1.620764    3.568741
H     -3.489756   -1.356514    5.987942
H     -2.916152    0.868538    6.916741
H     -2.755514    2.836428    5.417897
H     -3.180381    2.591347    2.996120
H     -0.581586    0.469317   -0.663639
H     -0.859982    2.045078    1.045879
H     -1.496997    3.626179    0.543234
H      1.508900    2.425301    1.132360
H      3.630971    3.013501    0.017821
H      3.611867    4.033264   -2.243148
H      1.457079    4.468961   -3.387937
H     -0.673114    3.869973   -2.295916
H     -0.530956    0.377907   -4.367237
H      0.454867    0.937716   -2.958712
H      0.527757   -1.620509   -4.910836
H      1.850885   -0.861671   -3.927599
H     -0.525798   -3.622944   -2.892222
H      0.246748   -5.876276   -2.261638
H      2.629416   -6.503401   -2.538120
H      4.246198   -4.863823   -3.454367
H      3.498172   -2.597946   -4.081498
