19

O      2.233292   -0.453912   -0.897328
C      1.791948   -0.013541    0.200122
C      2.687553   -0.040060    1.413957
N      4.093473   -0.143763    1.039463
N      4.667031    0.783091    0.465724
N      5.239717    1.708491   -0.107400
C      0.388430    0.470797    0.278070
C     -0.329045    0.740357   -0.903466
C     -1.650094    1.194381   -0.845786
C     -2.274480    1.381658    0.389910
Cl    -3.932418    1.950364    0.459518
C     -1.576844    1.112048    1.570062
C     -0.255225    0.658345    1.517842
H      2.542968    0.879642    2.021332
H      2.418475   -0.920428    2.034028
H      0.133041    0.607659   -1.873807
H     -2.186864    1.400651   -1.763073
H     -2.058701    1.250157    2.529683
H      0.250688    0.443529    2.449477
