19

O     -1.584040   -0.928213   -1.354624
C     -0.805972    0.042260   -1.145177
C     -1.394663    1.317732   -0.613782
N     -1.098506    1.440792    0.807604
N     -2.001561    1.513557    1.641493
N     -2.903343    1.586129    2.474760
C      0.652298   -0.117502   -1.403018
C      1.133032   -1.295710   -2.008093
C      2.498493   -1.463324   -2.256819
C      3.404286   -0.460117   -1.904618
Cl     5.117157   -0.673197   -2.217222
C      2.943433    0.712597   -1.301609
C      1.578736    0.885634   -1.050871
H     -0.974401    2.189165   -1.157832
H     -2.495158    1.323979   -0.784886
H      0.453627   -2.089068   -2.293578
H      2.850691   -2.374285   -2.723951
H      3.642322    1.491642   -1.024459
H      1.260607    1.802968   -0.575543
