36

C      2.804606    0.472452    0.513554
C      3.002044   -0.744785    1.365966
O      3.239911   -0.606557    2.556225
C      2.915342   -2.131035    0.783493
C      1.605047   -2.824498    1.171629
C      0.432634   -2.217347    0.436546
C     -0.514622   -1.432452    0.999522
C     -0.528576   -1.135995    2.479902
C     -1.607802   -0.857086    0.120445
C     -1.083780    0.267871   -0.784164
C     -0.708060    1.501482    0.003530
C     -0.160919    2.598280   -0.561386
C      0.171525    3.776165    0.317418
C      0.127840    2.663348   -2.042130
H      2.006780    1.103321    0.955420
H      3.747429    1.056573    0.474369
H      2.505945    0.197723   -0.519868
H      3.770817   -2.730421    1.163456
H      3.009736   -2.098362   -0.324093
H      1.477690   -2.813301    2.274004
H      1.672941   -3.892245    0.872735
H      0.392130   -2.398789   -0.634639
H     -1.369684   -0.464906    2.751397
H      0.413844   -0.630723    2.775478
H     -0.645230   -2.078688    3.054491
H     -2.027295   -1.667964   -0.514527
H     -2.451868   -0.471840    0.732840
H     -1.882339    0.537066   -1.508361
H     -0.205635   -0.095717   -1.359803
H     -0.885878    1.504451    1.076457
H     -0.752390    4.151889    0.805913
H      0.621061    4.608070   -0.263532
H      0.896242    3.468498    1.100675
H      0.860296    1.876433   -2.319371
H      0.556131    3.645565   -2.330797
H     -0.809390    2.516069   -2.618699
