38

O     -5.033302    1.826966    2.124387
C     -4.262279    1.143340    1.468882
C     -3.514054    1.743579    0.314507
C     -2.039519    1.307286    0.342380
C     -1.795822   -0.216929    0.667697
C     -3.132919   -0.981186    0.797502
C     -4.085990   -0.311252    1.796417
O     -1.074235   -0.858097   -0.383125
C      0.299669   -0.512203   -0.387670
C      0.888739   -0.540185    1.027664
C      2.309477   -0.004217    1.071543
C      3.235690   -0.661486    1.781490
C      2.685382    1.259548    0.380391
C      3.835282    1.306811   -0.430347
C      4.186674    2.486288   -1.093647
C      3.396828    3.629630   -0.955293
C      2.254868    3.595975   -0.152064
C      1.899198    2.419269    0.514017
O      0.056410    0.239022    1.844340
O     -1.114404   -0.386569    1.907351
H     -3.574341    2.853604    0.347081
H     -3.985423    1.404071   -0.632916
H     -1.602344    1.565687   -0.645209
H     -1.521649    1.945023    1.090496
H     -2.937156   -2.025034    1.127851
H     -3.628617   -1.041020   -0.197273
H     -3.679829   -0.406979    2.826394
H     -5.072718   -0.820687    1.758689
H      0.845424   -1.245008   -1.019095
H      0.425434    0.482908   -0.862659
H      0.875612   -1.599372    1.381392
H      4.250096   -0.289893    1.858926
H      2.994483   -1.573790    2.312506
H      4.452171    0.426317   -0.561379
H      5.070259    2.512511   -1.718219
H      3.669952    4.541774   -1.469922
H      1.645421    4.483771   -0.042765
H      1.019131    2.425433    1.140635
